<?xml version="1.0" encoding="UTF-8"?>
<routes>
    <vType id="standard_car" vClass="passenger" length="4.5" maxSpeed="15.0" accel="2.6" decel="4.5" sigma="0.5"/>

    <route id="route_main" edges="A0B0 B0C0 C0D0"/>
    
    <route id="route_cross_N_S_B0" edges="in_N_B0 out_S_B0"/>
    <route id="route_cross_S_N_B0" edges="in_S_B0 out_N_B0"/>
    
    <route id="route_cross_N_S_C0" edges="in_N_C0 out_S_C0"/>
    <route id="route_cross_S_N_C0" edges="in_S_C0 out_N_C0"/>

    <flow id="flow_main" type="standard_car" route="route_main" begin="0" end="3600" probability="0.30"/>

    <flow id="flow_cross_B0_1" type="standard_car" route="route_cross_N_S_B0" begin="0" end="3600" probability="0.08"/>
    <flow id="flow_cross_B0_2" type="standard_car" route="route_cross_S_N_B0" begin="0" end="3600" probability="0.08"/>

    <flow id="flow_cross_C0_1" type="standard_car" route="route_cross_N_S_C0" begin="0" end="3600" probability="0.08"/>
    <flow id="flow_cross_C0_2" type="standard_car" route="route_cross_S_N_C0" begin="0" end="3600" probability="0.08"/>
</routes>