<?xml version="1.0" encoding="UTF-8"?>

<!-- generated on 2026-06-08T11:39:01.794031+00:00 by Eclipse SUMO netconvert 1.26.0
<netconvertConfiguration xmlns:xsi="http://www.w3.org/2001/XMLSchema-instance" xsi:noNamespaceSchemaLocation="http://sumo.dlr.de/xsd/netconvertConfiguration.xsd">

    <input>
        <node-files value="env.nod.xml"/>
        <edge-files value="env.edg.xml"/>
    </input>

    <output>
        <output-file value="env.net.xml"/>
    </output>

    <building_defaults>
        <default.junctions.keep-clear value="true"/>
    </building_defaults>

</netconvertConfiguration>
-->

<net version="1.20" junctionCornerDetail="5" limitTurnSpeed="5.50" xmlns:xsi="http://www.w3.org/2001/XMLSchema-instance" xsi:noNamespaceSchemaLocation="http://sumo.dlr.de/xsd/net_file.xsd">

    <location netOffset="0.00,100.00" convBoundary="0.00,0.00,900.00,200.00" origBoundary="0.00,-100.00,900.00,100.00" projParameter="!"/>

    <edge id=":B0_0" function="internal">
        <lane id=":B0_0_0" index="0" speed="13.89" length="14.40" shape="298.40,104.00 298.40,89.60"/>
    </edge>
    <edge id=":B0_1" function="internal">
        <lane id=":B0_1_0" index="0" speed="7.33" length="2.51" shape="298.40,104.00 298.95,101.55"/>
    </edge>
    <edge id=":B0_2" function="internal">
        <lane id=":B0_2_0" index="0" speed="3.65" length="1.44" shape="298.40,104.00 299.20,102.80"/>
    </edge>
    <edge id=":B0_10" function="internal">
        <lane id=":B0_10_0" index="0" speed="7.33" length="9.21" shape="298.95,101.55 300.60,99.80 303.35,98.75 307.20,98.40"/>
    </edge>
    <edge id=":B0_11" function="internal">
        <lane id=":B0_11_0" index="0" speed="3.65" length="3.23" shape="299.20,102.80 300.00,102.40 300.80,102.80 301.60,104.00"/>
    </edge>
    <edge id=":B0_3" function="internal">
        <lane id=":B0_3_0" index="0" speed="6.51" length="9.03" shape="301.60,89.60 301.95,92.05 303.00,93.80 304.75,94.85 307.20,95.20"/>
    </edge>
    <edge id=":B0_4" function="internal">
        <lane id=":B0_4_0" index="0" speed="13.89" length="14.40" shape="301.60,89.60 301.60,104.00"/>
    </edge>
    <edge id=":B0_5" function="internal">
        <lane id=":B0_5_0" index="0" speed="3.65" length="1.44" shape="301.60,89.60 300.80,90.80"/>
    </edge>
    <edge id=":B0_12" function="internal">
        <lane id=":B0_12_0" index="0" speed="3.65" length="3.23" shape="300.80,90.80 300.00,91.20 299.20,90.80 298.40,89.60"/>
    </edge>
    <edge id=":B0_6" function="internal">
        <lane id=":B0_6_0" index="0" speed="6.51" length="9.03" shape="292.80,95.20 295.25,94.85 297.00,93.80 298.05,92.05 298.40,89.60"/>
    </edge>
    <edge id=":B0_7" function="internal">
        <lane id=":B0_7_0" index="0" speed="13.89" length="14.40" shape="292.80,95.20 307.20,95.20"/>
        <lane id=":B0_7_1" index="1" speed="13.89" length="14.40" shape="292.80,98.40 307.20,98.40"/>
    </edge>
    <edge id=":B0_9" function="internal">
        <lane id=":B0_9_0" index="0" speed="7.33" length="11.73" shape="292.80,98.40 296.65,98.75 299.40,99.80 301.05,101.55 301.60,104.00"/>
    </edge>
    <edge id=":C0_0" function="internal">
        <lane id=":C0_0_0" index="0" speed="13.89" length="14.40" shape="598.40,104.00 598.40,89.60"/>
    </edge>
    <edge id=":C0_1" function="internal">
        <lane id=":C0_1_0" index="0" speed="7.33" length="2.51" shape="598.40,104.00 598.95,101.55"/>
    </edge>
    <edge id=":C0_2" function="internal">
        <lane id=":C0_2_0" index="0" speed="3.65" length="1.44" shape="598.40,104.00 599.20,102.80"/>
    </edge>
    <edge id=":C0_10" function="internal">
        <lane id=":C0_10_0" index="0" speed="7.33" length="9.21" shape="598.95,101.55 600.60,99.80 603.35,98.75 607.20,98.40"/>
    </edge>
    <edge id=":C0_11" function="internal">
        <lane id=":C0_11_0" index="0" speed="3.65" length="3.23" shape="599.20,102.80 600.00,102.40 600.80,102.80 601.60,104.00"/>
    </edge>
    <edge id=":C0_3" function="internal">
        <lane id=":C0_3_0" index="0" speed="6.51" length="9.03" shape="601.60,89.60 601.95,92.05 603.00,93.80 604.75,94.85 607.20,95.20"/>
    </edge>
    <edge id=":C0_4" function="internal">
        <lane id=":C0_4_0" index="0" speed="13.89" length="14.40" shape="601.60,89.60 601.60,104.00"/>
    </edge>
    <edge id=":C0_5" function="internal">
        <lane id=":C0_5_0" index="0" speed="3.65" length="1.44" shape="601.60,89.60 600.80,90.80"/>
    </edge>
    <edge id=":C0_12" function="internal">
        <lane id=":C0_12_0" index="0" speed="3.65" length="3.23" shape="600.80,90.80 600.00,91.20 599.20,90.80 598.40,89.60"/>
    </edge>
    <edge id=":C0_6" function="internal">
        <lane id=":C0_6_0" index="0" speed="6.51" length="9.03" shape="592.80,95.20 595.25,94.85 597.00,93.80 598.05,92.05 598.40,89.60"/>
    </edge>
    <edge id=":C0_7" function="internal">
        <lane id=":C0_7_0" index="0" speed="13.89" length="14.40" shape="592.80,95.20 607.20,95.20"/>
        <lane id=":C0_7_1" index="1" speed="13.89" length="14.40" shape="592.80,98.40 607.20,98.40"/>
    </edge>
    <edge id=":C0_9" function="internal">
        <lane id=":C0_9_0" index="0" speed="7.33" length="11.73" shape="592.80,98.40 596.65,98.75 599.40,99.80 601.05,101.55 601.60,104.00"/>
    </edge>
    <edge id=":N_B0_0" function="internal">
        <lane id=":N_B0_0_0" index="0" speed="3.65" length="4.67" shape="301.60,200.00 300.80,201.20 300.00,201.60 299.20,201.20 298.40,200.00"/>
    </edge>
    <edge id=":N_C0_0" function="internal">
        <lane id=":N_C0_0_0" index="0" speed="3.65" length="4.67" shape="601.60,200.00 600.80,201.20 600.00,201.60 599.20,201.20 598.40,200.00"/>
    </edge>
    <edge id=":S_B0_0" function="internal">
        <lane id=":S_B0_0_0" index="0" speed="3.65" length="4.67" shape="298.40,0.00 299.20,-1.20 300.00,-1.60 300.80,-1.20 301.60,0.00"/>
    </edge>
    <edge id=":S_C0_0" function="internal">
        <lane id=":S_C0_0_0" index="0" speed="3.65" length="4.67" shape="598.40,0.00 599.20,-1.20 600.00,-1.60 600.80,-1.20 601.60,0.00"/>
    </edge>

    <edge id="A0B0" from="A0" to="B0" priority="-1">
        <lane id="A0B0_0" index="0" speed="13.89" length="292.80" shape="0.00,95.20 292.80,95.20"/>
        <lane id="A0B0_1" index="1" speed="13.89" length="292.80" shape="0.00,98.40 292.80,98.40"/>
    </edge>
    <edge id="B0C0" from="B0" to="C0" priority="-1">
        <lane id="B0C0_0" index="0" speed="13.89" length="285.60" shape="307.20,95.20 592.80,95.20"/>
        <lane id="B0C0_1" index="1" speed="13.89" length="285.60" shape="307.20,98.40 592.80,98.40"/>
    </edge>
    <edge id="C0D0" from="C0" to="D0" priority="-1">
        <lane id="C0D0_0" index="0" speed="13.89" length="292.80" shape="607.20,95.20 900.00,95.20"/>
        <lane id="C0D0_1" index="1" speed="13.89" length="292.80" shape="607.20,98.40 900.00,98.40"/>
    </edge>
    <edge id="in_N_B0" from="N_B0" to="B0" priority="-1">
        <lane id="in_N_B0_0" index="0" speed="13.89" length="96.00" shape="298.40,200.00 298.40,104.00"/>
    </edge>
    <edge id="in_N_C0" from="N_C0" to="C0" priority="-1">
        <lane id="in_N_C0_0" index="0" speed="13.89" length="96.00" shape="598.40,200.00 598.40,104.00"/>
    </edge>
    <edge id="in_S_B0" from="S_B0" to="B0" priority="-1">
        <lane id="in_S_B0_0" index="0" speed="13.89" length="89.60" shape="301.60,0.00 301.60,89.60"/>
    </edge>
    <edge id="in_S_C0" from="S_C0" to="C0" priority="-1">
        <lane id="in_S_C0_0" index="0" speed="13.89" length="89.60" shape="601.60,0.00 601.60,89.60"/>
    </edge>
    <edge id="out_N_B0" from="B0" to="N_B0" priority="-1">
        <lane id="out_N_B0_0" index="0" speed="13.89" length="96.00" shape="301.60,104.00 301.60,200.00"/>
    </edge>
    <edge id="out_N_C0" from="C0" to="N_C0" priority="-1">
        <lane id="out_N_C0_0" index="0" speed="13.89" length="96.00" shape="601.60,104.00 601.60,200.00"/>
    </edge>
    <edge id="out_S_B0" from="B0" to="S_B0" priority="-1">
        <lane id="out_S_B0_0" index="0" speed="13.89" length="89.60" shape="298.40,89.60 298.40,0.00"/>
    </edge>
    <edge id="out_S_C0" from="C0" to="S_C0" priority="-1">
        <lane id="out_S_C0_0" index="0" speed="13.89" length="89.60" shape="598.40,89.60 598.40,0.00"/>
    </edge>

    <tlLogic id="B0" type="static" programID="0" offset="0">
        <phase duration="42" state="GggGGgrrrr"/>
        <phase duration="3"  state="yyyyyyrrrr"/>
        <phase duration="42" state="rrrrrrGGGG"/>
        <phase duration="3"  state="rrrrrryyyy"/>
    </tlLogic>
    <tlLogic id="C0" type="static" programID="0" offset="0">
        <phase duration="42" state="GggGGgrrrr"/>
        <phase duration="3"  state="yyyyyyrrrr"/>
        <phase duration="42" state="rrrrrrGGGG"/>
        <phase duration="3"  state="rrrrrryyyy"/>
    </tlLogic>

    <junction id="A0" type="dead_end" x="0.00" y="100.00" incLanes="" intLanes="" shape="0.00,100.00 0.00,93.60"/>
    <junction id="B0" type="traffic_light" x="300.00" y="100.00" incLanes="in_N_B0_0 in_S_B0_0 A0B0_0 A0B0_1" intLanes=":B0_0_0 :B0_10_0 :B0_11_0 :B0_3_0 :B0_4_0 :B0_12_0 :B0_6_0 :B0_7_0 :B0_7_1 :B0_9_0" shape="296.80,104.00 303.20,104.00 303.64,101.78 304.20,101.00 304.98,100.44 305.98,100.11 307.20,100.00 307.20,93.60 304.98,93.16 304.20,92.60 303.64,91.82 303.31,90.82 303.20,89.60 296.80,89.60 296.36,91.82 295.80,92.60 295.02,93.16 294.02,93.49 292.80,93.60 292.80,100.00 295.02,100.44 295.80,101.00 296.36,101.78 296.69,102.78">
        <request index="0" response="1111000000" foes="1111100000" cont="0"/>
        <request index="1" response="1110010000" foes="1110010000" cont="1"/>
        <request index="2" response="1000010000" foes="1000010000" cont="1"/>
        <request index="3" response="0110000000" foes="0110000000" cont="0"/>
        <request index="4" response="1110000000" foes="1110000110" cont="0"/>
        <request index="5" response="0001000001" foes="0001000001" cont="1"/>
        <request index="6" response="0000000000" foes="0000100001" cont="0"/>
        <request index="7" response="0000000000" foes="0000011011" cont="0"/>
        <request index="8" response="0000000010" foes="0000011011" cont="0"/>
        <request index="9" response="0000000010" foes="0000010111" cont="0"/>
    </junction>
    <junction id="C0" type="traffic_light" x="600.00" y="100.00" incLanes="in_N_C0_0 in_S_C0_0 B0C0_0 B0C0_1" intLanes=":C0_0_0 :C0_10_0 :C0_11_0 :C0_3_0 :C0_4_0 :C0_12_0 :C0_6_0 :C0_7_0 :C0_7_1 :C0_9_0" shape="596.80,104.00 603.20,104.00 603.64,101.78 604.20,101.00 604.98,100.44 605.98,100.11 607.20,100.00 607.20,93.60 604.98,93.16 604.20,92.60 603.64,91.82 603.31,90.82 603.20,89.60 596.80,89.60 596.36,91.82 595.80,92.60 595.02,93.16 594.02,93.49 592.80,93.60 592.80,100.00 595.02,100.44 595.80,101.00 596.36,101.78 596.69,102.78">
        <request index="0" response="1111000000" foes="1111100000" cont="0"/>
        <request index="1" response="1110010000" foes="1110010000" cont="1"/>
        <request index="2" response="1000010000" foes="1000010000" cont="1"/>
        <request index="3" response="0110000000" foes="0110000000" cont="0"/>
        <request index="4" response="1110000000" foes="1110000110" cont="0"/>
        <request index="5" response="0001000001" foes="0001000001" cont="1"/>
        <request index="6" response="0000000000" foes="0000100001" cont="0"/>
        <request index="7" response="0000000000" foes="0000011011" cont="0"/>
        <request index="8" response="0000000010" foes="0000011011" cont="0"/>
        <request index="9" response="0000000010" foes="0000010111" cont="0"/>
    </junction>
    <junction id="D0" type="dead_end" x="900.00" y="100.00" incLanes="C0D0_0 C0D0_1" intLanes="" shape="900.00,93.60 900.00,100.00"/>
    <junction id="N_B0" type="priority" x="300.00" y="200.00" incLanes="out_N_B0_0" intLanes=":N_B0_0_0" shape="300.00,200.00 303.20,200.00 300.00,200.00">
        <request index="0" response="0" foes="0" cont="0"/>
    </junction>
    <junction id="N_C0" type="priority" x="600.00" y="200.00" incLanes="out_N_C0_0" intLanes=":N_C0_0_0" shape="600.00,200.00 603.20,200.00 600.00,200.00">
        <request index="0" response="0" foes="0" cont="0"/>
    </junction>
    <junction id="S_B0" type="priority" x="300.00" y="0.00" incLanes="out_S_B0_0" intLanes=":S_B0_0_0" shape="300.00,0.00 296.80,0.00 300.00,0.00">
        <request index="0" response="0" foes="0" cont="0"/>
    </junction>
    <junction id="S_C0" type="priority" x="600.00" y="0.00" incLanes="out_S_C0_0" intLanes=":S_C0_0_0" shape="600.00,0.00 596.80,0.00 600.00,0.00">
        <request index="0" response="0" foes="0" cont="0"/>
    </junction>

    <junction id=":B0_10_0" type="internal" x="298.95" y="101.55" incLanes=":B0_1_0 in_S_B0_0" intLanes=":B0_3_0 :B0_4_0 :B0_7_0 :B0_7_1 :B0_9_0"/>
    <junction id=":B0_11_0" type="internal" x="299.20" y="102.80" incLanes=":B0_2_0 A0B0_1 in_S_B0_0" intLanes=":B0_4_0 :B0_9_0"/>
    <junction id=":B0_12_0" type="internal" x="300.80" y="90.80" incLanes=":B0_5_0 A0B0_0 in_N_B0_0" intLanes=":B0_0_0 :B0_6_0"/>
    <junction id=":C0_10_0" type="internal" x="598.95" y="101.55" incLanes=":C0_1_0 in_S_C0_0" intLanes=":C0_3_0 :C0_4_0 :C0_7_0 :C0_7_1 :C0_9_0"/>
    <junction id=":C0_11_0" type="internal" x="599.20" y="102.80" incLanes=":C0_2_0 B0C0_1 in_S_C0_0" intLanes=":C0_4_0 :C0_9_0"/>
    <junction id=":C0_12_0" type="internal" x="600.80" y="90.80" incLanes=":C0_5_0 B0C0_0 in_N_C0_0" intLanes=":C0_0_0 :C0_6_0"/>

    <connection from="A0B0" to="out_S_B0" fromLane="0" toLane="0" via=":B0_6_0" tl="B0" linkIndex="6" dir="r" state="O"/>
    <connection from="A0B0" to="B0C0" fromLane="0" toLane="0" via=":B0_7_0" tl="B0" linkIndex="7" dir="s" state="O"/>
    <connection from="A0B0" to="B0C0" fromLane="1" toLane="1" via=":B0_7_1" tl="B0" linkIndex="8" dir="s" state="O"/>
    <connection from="A0B0" to="out_N_B0" fromLane="1" toLane="0" via=":B0_9_0" tl="B0" linkIndex="9" dir="l" state="O"/>
    <connection from="B0C0" to="out_S_C0" fromLane="0" toLane="0" via=":C0_6_0" tl="C0" linkIndex="6" dir="r" state="O"/>
    <connection from="B0C0" to="C0D0" fromLane="0" toLane="0" via=":C0_7_0" tl="C0" linkIndex="7" dir="s" state="O"/>
    <connection from="B0C0" to="C0D0" fromLane="1" toLane="1" via=":C0_7_1" tl="C0" linkIndex="8" dir="s" state="O"/>
    <connection from="B0C0" to="out_N_C0" fromLane="1" toLane="0" via=":C0_9_0" tl="C0" linkIndex="9" dir="l" state="O"/>
    <connection from="in_N_B0" to="out_S_B0" fromLane="0" toLane="0" via=":B0_0_0" tl="B0" linkIndex="0" dir="s" state="o"/>
    <connection from="in_N_B0" to="B0C0" fromLane="0" toLane="1" via=":B0_1_0" tl="B0" linkIndex="1" dir="l" state="o"/>
    <connection from="in_N_B0" to="out_N_B0" fromLane="0" toLane="0" via=":B0_2_0" tl="B0" linkIndex="2" dir="t" state="o"/>
    <connection from="in_N_C0" to="out_S_C0" fromLane="0" toLane="0" via=":C0_0_0" tl="C0" linkIndex="0" dir="s" state="o"/>
    <connection from="in_N_C0" to="C0D0" fromLane="0" toLane="1" via=":C0_1_0" tl="C0" linkIndex="1" dir="l" state="o"/>
    <connection from="in_N_C0" to="out_N_C0" fromLane="0" toLane="0" via=":C0_2_0" tl="C0" linkIndex="2" dir="t" state="o"/>
    <connection from="in_S_B0" to="B0C0" fromLane="0" toLane="0" via=":B0_3_0" tl="B0" linkIndex="3" dir="r" state="o"/>
    <connection from="in_S_B0" to="out_N_B0" fromLane="0" toLane="0" via=":B0_4_0" tl="B0" linkIndex="4" dir="s" state="o"/>
    <connection from="in_S_B0" to="out_S_B0" fromLane="0" toLane="0" via=":B0_5_0" tl="B0" linkIndex="5" dir="t" state="o"/>
    <connection from="in_S_C0" to="C0D0" fromLane="0" toLane="0" via=":C0_3_0" tl="C0" linkIndex="3" dir="r" state="o"/>
    <connection from="in_S_C0" to="out_N_C0" fromLane="0" toLane="0" via=":C0_4_0" tl="C0" linkIndex="4" dir="s" state="o"/>
    <connection from="in_S_C0" to="out_S_C0" fromLane="0" toLane="0" via=":C0_5_0" tl="C0" linkIndex="5" dir="t" state="o"/>
    <connection from="out_N_B0" to="in_N_B0" fromLane="0" toLane="0" via=":N_B0_0_0" dir="t" state="M"/>
    <connection from="out_N_C0" to="in_N_C0" fromLane="0" toLane="0" via=":N_C0_0_0" dir="t" state="M"/>
    <connection from="out_S_B0" to="in_S_B0" fromLane="0" toLane="0" via=":S_B0_0_0" dir="t" state="M"/>
    <connection from="out_S_C0" to="in_S_C0" fromLane="0" toLane="0" via=":S_C0_0_0" dir="t" state="M"/>

    <connection from=":B0_0" to="out_S_B0" fromLane="0" toLane="0" dir="s" state="M"/>
    <connection from=":B0_1" to="B0C0" fromLane="0" toLane="1" via=":B0_10_0" dir="l" state="m"/>
    <connection from=":B0_10" to="B0C0" fromLane="0" toLane="1" dir="l" state="M"/>
    <connection from=":B0_2" to="out_N_B0" fromLane="0" toLane="0" via=":B0_11_0" dir="t" state="m"/>
    <connection from=":B0_11" to="out_N_B0" fromLane="0" toLane="0" dir="t" state="M"/>
    <connection from=":B0_3" to="B0C0" fromLane="0" toLane="0" dir="r" state="M"/>
    <connection from=":B0_4" to="out_N_B0" fromLane="0" toLane="0" dir="s" state="M"/>
    <connection from=":B0_5" to="out_S_B0" fromLane="0" toLane="0" via=":B0_12_0" dir="t" state="m"/>
    <connection from=":B0_12" to="out_S_B0" fromLane="0" toLane="0" dir="t" state="M"/>
    <connection from=":B0_6" to="out_S_B0" fromLane="0" toLane="0" dir="r" state="M"/>
    <connection from=":B0_7" to="B0C0" fromLane="0" toLane="0" dir="s" state="M"/>
    <connection from=":B0_7" to="B0C0" fromLane="1" toLane="1" dir="s" state="M"/>
    <connection from=":B0_9" to="out_N_B0" fromLane="0" toLane="0" dir="l" state="M"/>
    <connection from=":C0_0" to="out_S_C0" fromLane="0" toLane="0" dir="s" state="M"/>
    <connection from=":C0_1" to="C0D0" fromLane="0" toLane="1" via=":C0_10_0" dir="l" state="m"/>
    <connection from=":C0_10" to="C0D0" fromLane="0" toLane="1" dir="l" state="M"/>
    <connection from=":C0_2" to="out_N_C0" fromLane="0" toLane="0" via=":C0_11_0" dir="t" state="m"/>
    <connection from=":C0_11" to="out_N_C0" fromLane="0" toLane="0" dir="t" state="M"/>
    <connection from=":C0_3" to="C0D0" fromLane="0" toLane="0" dir="r" state="M"/>
    <connection from=":C0_4" to="out_N_C0" fromLane="0" toLane="0" dir="s" state="M"/>
    <connection from=":C0_5" to="out_S_C0" fromLane="0" toLane="0" via=":C0_12_0" dir="t" state="m"/>
    <connection from=":C0_12" to="out_S_C0" fromLane="0" toLane="0" dir="t" state="M"/>
    <connection from=":C0_6" to="out_S_C0" fromLane="0" toLane="0" dir="r" state="M"/>
    <connection from=":C0_7" to="C0D0" fromLane="0" toLane="0" dir="s" state="M"/>
    <connection from=":C0_7" to="C0D0" fromLane="1" toLane="1" dir="s" state="M"/>
    <connection from=":C0_9" to="out_N_C0" fromLane="0" toLane="0" dir="l" state="M"/>
    <connection from=":N_B0_0" to="in_N_B0" fromLane="0" toLane="0" dir="t" state="M"/>
    <connection from=":N_C0_0" to="in_N_C0" fromLane="0" toLane="0" dir="t" state="M"/>
    <connection from=":S_B0_0" to="in_S_B0" fromLane="0" toLane="0" dir="t" state="M"/>
    <connection from=":S_C0_0" to="in_S_C0" fromLane="0" toLane="0" dir="t" state="M"/>

</net>
