<?xml version="1.0" encoding="UTF-8"?>
<additional>
    <poly id="ground" type="ground" color="223,226,221" fill="1" layer="-10" shape="-35.0,-35.0 935.0,-35.0 935.0,235.0 -35.0,235.0 -35.0,-35.0"/>
    <poly id="bldg_0" type="building" color="199,190,178" fill="1" layer="-5" shape="-29.7,-32.1 -15.2,-32.1 -15.2,-17.7 -29.7,-17.7 -29.7,-32.1"/>
    <poly id="park_1" type="park" color="168,200,148" fill="1" layer="-6" shape="-29.8,-5.7 -14.2,-5.7 -14.2,8.0 -29.8,8.0 -29.8,-5.7"/>
    <poly id="bldg_2" type="building" color="208,200,186" fill="1" layer="-5" shape="-30.1,15.2 -15.8,15.2 -15.8,31.0 -30.1,31.0 -30.1,15.2"/>
    <poly id="bldg_3" type="building" color="212,198,182" fill="1" layer="-5" shape="-31.5,40.0 -14.9,40.0 -14.9,56.2 -31.5,56.2 -31.5,40.0"/>
    <poly id="park_4" type="park" color="168,200,148" fill="1" layer="-6" shape="-32.1,64.2 -15.2,64.2 -15.2,79.0 -32.1,79.0 -32.1,64.2"/>
    <poly id="bldg_5" type="building" color="196,188,176" fill="1" layer="-5" shape="-30.8,89.5 -16.3,89.5 -16.3,103.2 -30.8,103.2 -30.8,89.5"/>
    <poly id="bldg_6" type="building" color="184,176,164" fill="1" layer="-5" shape="-28.8,112.3 -13.4,112.3 -13.4,128.7 -28.8,128.7 -28.8,112.3"/>
    <poly id="bldg_7" type="building" color="196,188,176" fill="1" layer="-5" shape="-29.6,138.6 -15.8,138.6 -15.8,153.0 -29.6,153.0 -29.6,138.6"/>
    <poly id="bldg_8" type="building" color="208,200,186" fill="1" layer="-5" shape="-29.0,162.9 -14.1,162.9 -14.1,178.0 -29.0,178.0 -29.0,162.9"/>
    <poly id="bldg_9" type="building" color="175,167,155" fill="1" layer="-5" shape="-30.8,183.4 -16.3,183.4 -16.3,200.2 -30.8,200.2 -30.8,183.4"/>
    <poly id="bldg_10" type="building" color="199,190,178" fill="1" layer="-5" shape="-29.7,209.6 -15.2,209.6 -15.2,224.7 -29.7,224.7 -29.7,209.6"/>
    <poly id="park_11" type="park" color="168,200,148" fill="1" layer="-6" shape="-5.6,-32.2 9.1,-32.2 9.1,-16.0 -5.6,-16.0 -5.6,-32.2"/>
    <poly id="bldg_12" type="building" color="199,190,178" fill="1" layer="-5" shape="-4.7,-7.7 9.1,-7.7 9.1,9.0 -4.7,9.0 -4.7,-7.7"/>
    <poly id="bldg_13" type="building" color="184,176,164" fill="1" layer="-5" shape="-7.2,17.3 7.7,17.3 7.7,34.0 -7.2,34.0 -7.2,17.3"/>
    <poly id="bldg_14" type="building" color="175,167,155" fill="1" layer="-5" shape="-8.2,41.9 7.3,41.9 7.3,58.0 -8.2,58.0 -8.2,41.9"/>
    <poly id="park_15" type="park" color="168,200,148" fill="1" layer="-6" shape="-7.9,64.2 9.1,64.2 9.1,79.5 -7.9,79.5 -7.9,64.2"/>
    <poly id="bldg_16" type="building" color="212,198,182" fill="1" layer="-5" shape="-8.2,114.3 7.5,114.3 7.5,129.2 -8.2,129.2 -8.2,114.3"/>
    <poly id="bldg_17" type="building" color="199,190,178" fill="1" layer="-5" shape="-7.1,140.1 9.4,140.1 9.4,153.7 -7.1,153.7 -7.1,140.1"/>
    <poly id="bldg_18" type="building" color="208,200,186" fill="1" layer="-5" shape="-5.6,162.6 10.6,162.6 10.6,177.4 -5.6,177.4 -5.6,162.6"/>
    <poly id="bldg_19" type="building" color="208,200,186" fill="1" layer="-5" shape="-7.5,187.6 9.1,187.6 9.1,202.1 -7.5,202.1 -7.5,187.6"/>
    <poly id="bldg_20" type="building" color="208,200,186" fill="1" layer="-5" shape="-6.8,207.2 8.9,207.2 8.9,223.7 -6.8,223.7 -6.8,207.2"/>
    <poly id="bldg_21" type="building" color="196,188,176" fill="1" layer="-5" shape="15.9,-30.1 31.3,-30.1 31.3,-13.8 15.9,-13.8 15.9,-30.1"/>
    <poly id="bldg_22" type="building" color="184,176,164" fill="1" layer="-5" shape="18.4,-6.5 32.4,-6.5 32.4,8.4 18.4,8.4 18.4,-6.5"/>
    <poly id="bldg_23" type="building" color="196,188,176" fill="1" layer="-5" shape="16.2,17.0 31.7,17.0 31.7,30.9 16.2,30.9 16.2,17.0"/>
    <poly id="bldg_24" type="building" color="208,200,186" fill="1" layer="-5" shape="19.9,41.2 33.9,41.2 33.9,57.1 19.9,57.1 19.9,41.2"/>
    <poly id="bldg_25" type="building" color="199,190,178" fill="1" layer="-5" shape="16.5,67.3 31.6,67.3 31.6,81.6 16.5,81.6 16.5,67.3"/>
    <poly id="bldg_26" type="building" color="208,200,186" fill="1" layer="-5" shape="17.2,113.4 32.0,113.4 32.0,130.0 17.2,130.0 17.2,113.4"/>
    <poly id="bldg_27" type="building" color="196,188,176" fill="1" layer="-5" shape="16.1,137.2 31.7,137.2 31.7,151.5 16.1,151.5 16.1,137.2"/>
    <poly id="bldg_28" type="building" color="175,167,155" fill="1" layer="-5" shape="18.9,160.4 32.7,160.4 32.7,174.1 18.9,174.1 18.9,160.4"/>
    <poly id="bldg_29" type="building" color="175,167,155" fill="1" layer="-5" shape="16.8,186.7 31.1,186.7 31.1,200.7 16.8,200.7 16.8,186.7"/>
    <poly id="park_30" type="park" color="152,190,138" fill="1" layer="-6" shape="17.7,208.5 32.9,208.5 32.9,223.5 17.7,223.5 17.7,208.5"/>
    <poly id="bldg_31" type="building" color="199,190,178" fill="1" layer="-5" shape="40.1,-30.2 56.7,-30.2 56.7,-16.5 40.1,-16.5 40.1,-30.2"/>
    <poly id="bldg_32" type="building" color="208,200,186" fill="1" layer="-5" shape="40.0,-7.7 54.8,-7.7 54.8,8.9 40.0,8.9 40.0,-7.7"/>
    <poly id="bldg_33" type="building" color="196,188,176" fill="1" layer="-5" shape="42.0,16.0 56.3,16.0 56.3,31.1 42.0,31.1 42.0,16.0"/>
    <poly id="bldg_34" type="building" color="196,188,176" fill="1" layer="-5" shape="41.0,43.6 56.5,43.6 56.5,57.3 41.0,57.3 41.0,43.6"/>
    <poly id="bldg_35" type="building" color="208,200,186" fill="1" layer="-5" shape="42.6,67.6 59.1,67.6 59.1,81.8 42.6,81.8 42.6,67.6"/>
    <poly id="bldg_36" type="building" color="184,176,164" fill="1" layer="-5" shape="40.2,110.6 55.1,110.6 55.1,127.4 40.2,127.4 40.2,110.6"/>
    <poly id="bldg_37" type="building" color="208,200,186" fill="1" layer="-5" shape="40.2,139.1 57.2,139.1 57.2,154.6 40.2,154.6 40.2,139.1"/>
    <poly id="park_38" type="park" color="152,190,138" fill="1" layer="-6" shape="40.9,159.8 54.7,159.8 54.7,175.9 40.9,175.9 40.9,159.8"/>
    <poly id="bldg_39" type="building" color="175,167,155" fill="1" layer="-5" shape="39.6,185.1 54.9,185.1 54.9,201.6 39.6,201.6 39.6,185.1"/>
    <poly id="bldg_40" type="building" color="196,188,176" fill="1" layer="-5" shape="39.5,207.8 55.1,207.8 55.1,223.7 39.5,223.7 39.5,207.8"/>
    <poly id="park_41" type="park" color="152,190,138" fill="1" layer="-6" shape="67.0,-29.6 82.6,-29.6 82.6,-15.9 67.0,-15.9 67.0,-29.6"/>
    <poly id="bldg_42" type="building" color="199,190,178" fill="1" layer="-5" shape="66.7,-7.4 82.8,-7.4 82.8,7.0 66.7,7.0 66.7,-7.4"/>
    <poly id="park_43" type="park" color="168,200,148" fill="1" layer="-6" shape="65.2,16.4 82.0,16.4 82.0,33.2 65.2,33.2 65.2,16.4"/>
    <poly id="bldg_44" type="building" color="208,200,186" fill="1" layer="-5" shape="64.0,39.5 78.5,39.5 78.5,56.2 64.0,56.2 64.0,39.5"/>
    <poly id="bldg_45" type="building" color="199,190,178" fill="1" layer="-5" shape="64.3,63.6 80.7,63.6 80.7,79.6 64.3,79.6 64.3,63.6"/>
    <poly id="bldg_46" type="building" color="196,188,176" fill="1" layer="-5" shape="66.2,114.4 80.2,114.4 80.2,131.0 66.2,131.0 66.2,114.4"/>
    <poly id="bldg_47" type="building" color="199,190,178" fill="1" layer="-5" shape="66.7,136.5 81.2,136.5 81.2,150.8 66.7,150.8 66.7,136.5"/>
    <poly id="bldg_48" type="building" color="196,188,176" fill="1" layer="-5" shape="65.9,159.7 81.2,159.7 81.2,176.4 65.9,176.4 65.9,159.7"/>
    <poly id="bldg_49" type="building" color="184,176,164" fill="1" layer="-5" shape="66.7,187.0 80.4,187.0 80.4,201.7 66.7,201.7 66.7,187.0"/>
    <poly id="park_50" type="park" color="168,200,148" fill="1" layer="-6" shape="63.6,209.0 79.6,209.0 79.6,224.5 63.6,224.5 63.6,209.0"/>
    <poly id="bldg_51" type="building" color="184,176,164" fill="1" layer="-5" shape="89.4,-28.7 105.0,-28.7 105.0,-14.6 89.4,-14.6 89.4,-28.7"/>
    <poly id="bldg_52" type="building" color="199,190,178" fill="1" layer="-5" shape="88.0,-4.1 104.9,-4.1 104.9,9.6 88.0,9.6 88.0,-4.1"/>
    <poly id="bldg_53" type="building" color="175,167,155" fill="1" layer="-5" shape="87.9,15.1 104.1,15.1 104.1,31.7 87.9,31.7 87.9,15.1"/>
    <poly id="bldg_54" type="building" color="208,200,186" fill="1" layer="-5" shape="90.8,43.6 105.2,43.6 105.2,57.8 90.8,57.8 90.8,43.6"/>
    <poly id="bldg_55" type="building" color="199,190,178" fill="1" layer="-5" shape="90.5,63.7 106.6,63.7 106.6,78.5 90.5,78.5 90.5,63.7"/>
    <poly id="bldg_56" type="building" color="208,200,186" fill="1" layer="-5" shape="89.1,113.9 103.1,113.9 103.1,130.4 89.1,130.4 89.1,113.9"/>
    <poly id="bldg_57" type="building" color="208,200,186" fill="1" layer="-5" shape="88.4,138.5 103.2,138.5 103.2,154.9 88.4,154.9 88.4,138.5"/>
    <poly id="bldg_58" type="building" color="184,176,164" fill="1" layer="-5" shape="87.7,159.5 102.5,159.5 102.5,176.0 87.7,176.0 87.7,159.5"/>
    <poly id="bldg_59" type="building" color="196,188,176" fill="1" layer="-5" shape="88.4,184.8 104.4,184.8 104.4,201.3 88.4,201.3 88.4,184.8"/>
    <poly id="bldg_60" type="building" color="196,188,176" fill="1" layer="-5" shape="88.4,210.4 102.6,210.4 102.6,227.3 88.4,227.3 88.4,210.4"/>
    <poly id="bldg_61" type="building" color="196,188,176" fill="1" layer="-5" shape="113.2,-31.2 129.5,-31.2 129.5,-16.1 113.2,-16.1 113.2,-31.2"/>
    <poly id="park_62" type="park" color="168,200,148" fill="1" layer="-6" shape="113.3,-6.7 127.8,-6.7 127.8,9.3 113.3,9.3 113.3,-6.7"/>
    <poly id="bldg_63" type="building" color="196,188,176" fill="1" layer="-5" shape="112.5,15.9 128.4,15.9 128.4,30.6 112.5,30.6 112.5,15.9"/>
    <poly id="bldg_64" type="building" color="184,176,164" fill="1" layer="-5" shape="114.6,40.7 129.2,40.7 129.2,55.7 114.6,55.7 114.6,40.7"/>
    <poly id="bldg_65" type="building" color="208,200,186" fill="1" layer="-5" shape="113.3,64.3 129.1,64.3 129.1,79.2 113.3,79.2 113.3,64.3"/>
    <poly id="bldg_66" type="building" color="199,190,178" fill="1" layer="-5" shape="113.9,111.5 128.5,111.5 128.5,126.5 113.9,126.5 113.9,111.5"/>
    <poly id="bldg_67" type="building" color="199,190,178" fill="1" layer="-5" shape="112.3,137.1 128.2,137.1 128.2,152.4 112.3,152.4 112.3,137.1"/>
    <poly id="bldg_68" type="building" color="208,200,186" fill="1" layer="-5" shape="112.0,159.5 127.4,159.5 127.4,175.2 112.0,175.2 112.0,159.5"/>
    <poly id="bldg_69" type="building" color="212,198,182" fill="1" layer="-5" shape="114.6,185.1 128.8,185.1 128.8,198.7 114.6,198.7 114.6,185.1"/>
    <poly id="bldg_70" type="building" color="199,190,178" fill="1" layer="-5" shape="113.9,209.8 129.0,209.8 129.0,226.4 113.9,226.4 113.9,209.8"/>
    <poly id="park_71" type="park" color="168,200,148" fill="1" layer="-6" shape="138.6,-30.9 153.0,-30.9 153.0,-15.1 138.6,-15.1 138.6,-30.9"/>
    <poly id="bldg_72" type="building" color="175,167,155" fill="1" layer="-5" shape="137.9,-8.1 154.3,-8.1 154.3,7.9 137.9,7.9 137.9,-8.1"/>
    <poly id="bldg_73" type="building" color="175,167,155" fill="1" layer="-5" shape="136.4,18.2 151.6,18.2 151.6,34.6 136.4,34.6 136.4,18.2"/>
    <poly id="bldg_74" type="building" color="175,167,155" fill="1" layer="-5" shape="137.1,43.0 153.7,43.0 153.7,58.6 137.1,58.6 137.1,43.0"/>
    <poly id="bldg_75" type="building" color="212,198,182" fill="1" layer="-5" shape="137.1,67.6 152.3,67.6 152.3,81.7 137.1,81.7 137.1,67.6"/>
    <poly id="bldg_76" type="building" color="196,188,176" fill="1" layer="-5" shape="137.9,114.2 153.2,114.2 153.2,129.9 137.9,129.9 137.9,114.2"/>
    <poly id="park_77" type="park" color="168,200,148" fill="1" layer="-6" shape="138.5,135.6 153.2,135.6 153.2,152.3 138.5,152.3 138.5,135.6"/>
    <poly id="bldg_78" type="building" color="175,167,155" fill="1" layer="-5" shape="135.9,162.9 151.9,162.9 151.9,176.7 135.9,176.7 135.9,162.9"/>
    <poly id="bldg_79" type="building" color="199,190,178" fill="1" layer="-5" shape="136.6,183.8 153.1,183.8 153.1,198.7 136.6,198.7 136.6,183.8"/>
    <poly id="bldg_80" type="building" color="184,176,164" fill="1" layer="-5" shape="135.3,210.9 150.9,210.9 150.9,226.1 135.3,226.1 135.3,210.9"/>
    <poly id="bldg_81" type="building" color="175,167,155" fill="1" layer="-5" shape="161.6,-29.1 178.4,-29.1 178.4,-14.1 161.6,-14.1 161.6,-29.1"/>
    <poly id="bldg_82" type="building" color="212,198,182" fill="1" layer="-5" shape="162.6,-4.7 177.8,-4.7 177.8,9.9 162.6,9.9 162.6,-4.7"/>
    <poly id="bldg_83" type="building" color="208,200,186" fill="1" layer="-5" shape="160.9,18.6 175.8,18.6 175.8,32.8 160.9,32.8 160.9,18.6"/>
    <poly id="bldg_84" type="building" color="196,188,176" fill="1" layer="-5" shape="162.6,41.3 179.3,41.3 179.3,56.9 162.6,56.9 162.6,41.3"/>
    <poly id="bldg_85" type="building" color="208,200,186" fill="1" layer="-5" shape="162.0,64.7 177.2,64.7 177.2,78.4 162.0,78.4 162.0,64.7"/>
    <poly id="bldg_86" type="building" color="212,198,182" fill="1" layer="-5" shape="162.1,112.6 178.9,112.6 178.9,127.6 162.1,127.6 162.1,112.6"/>
    <poly id="bldg_87" type="building" color="199,190,178" fill="1" layer="-5" shape="158.6,137.8 175.6,137.8 175.6,152.6 158.6,152.6 158.6,137.8"/>
    <poly id="bldg_88" type="building" color="208,200,186" fill="1" layer="-5" shape="159.9,158.9 174.4,158.9 174.4,175.4 159.9,175.4 159.9,158.9"/>
    <poly id="bldg_89" type="building" color="184,176,164" fill="1" layer="-5" shape="159.7,186.5 175.3,186.5 175.3,200.8 159.7,200.8 159.7,186.5"/>
    <poly id="bldg_90" type="building" color="184,176,164" fill="1" layer="-5" shape="159.6,210.4 175.7,210.4 175.7,224.4 159.6,224.4 159.6,210.4"/>
    <poly id="bldg_91" type="building" color="212,198,182" fill="1" layer="-5" shape="184.1,-32.8 198.8,-32.8 198.8,-16.9 184.1,-16.9 184.1,-32.8"/>
    <poly id="bldg_92" type="building" color="199,190,178" fill="1" layer="-5" shape="187.0,-8.4 202.6,-8.4 202.6,8.0 187.0,8.0 187.0,-8.4"/>
    <poly id="bldg_93" type="building" color="196,188,176" fill="1" layer="-5" shape="186.3,19.4 201.9,19.4 201.9,33.4 186.3,33.4 186.3,19.4"/>
    <poly id="bldg_94" type="building" color="212,198,182" fill="1" layer="-5" shape="185.0,41.1 199.8,41.1 199.8,56.4 185.0,56.4 185.0,41.1"/>
    <poly id="bldg_95" type="building" color="199,190,178" fill="1" layer="-5" shape="185.9,63.5 202.7,63.5 202.7,79.3 185.9,79.3 185.9,63.5"/>
    <poly id="bldg_96" type="building" color="212,198,182" fill="1" layer="-5" shape="185.2,113.2 200.9,113.2 200.9,130.0 185.2,130.0 185.2,113.2"/>
    <poly id="bldg_97" type="building" color="196,188,176" fill="1" layer="-5" shape="185.5,137.7 200.0,137.7 200.0,154.2 185.5,154.2 185.5,137.7"/>
    <poly id="bldg_98" type="building" color="184,176,164" fill="1" layer="-5" shape="184.0,161.0 200.2,161.0 200.2,176.6 184.0,176.6 184.0,161.0"/>
    <poly id="bldg_99" type="building" color="184,176,164" fill="1" layer="-5" shape="184.0,187.2 198.2,187.2 198.2,201.6 184.0,201.6 184.0,187.2"/>
    <poly id="bldg_100" type="building" color="208,200,186" fill="1" layer="-5" shape="183.8,209.6 200.4,209.6 200.4,225.1 183.8,225.1 183.8,209.6"/>
    <poly id="bldg_101" type="building" color="199,190,178" fill="1" layer="-5" shape="207.7,-30.2 223.0,-30.2 223.0,-14.0 207.7,-14.0 207.7,-30.2"/>
    <poly id="bldg_102" type="building" color="208,200,186" fill="1" layer="-5" shape="211.0,-6.5 224.7,-6.5 224.7,8.1 211.0,8.1 211.0,-6.5"/>
    <poly id="bldg_103" type="building" color="199,190,178" fill="1" layer="-5" shape="208.6,17.6 223.8,17.6 223.8,33.0 208.6,33.0 208.6,17.6"/>
    <poly id="bldg_104" type="building" color="199,190,178" fill="1" layer="-5" shape="209.6,41.1 224.8,41.1 224.8,55.7 209.6,55.7 209.6,41.1"/>
    <poly id="bldg_105" type="building" color="208,200,186" fill="1" layer="-5" shape="208.1,63.4 223.5,63.4 223.5,79.6 208.1,79.6 208.1,63.4"/>
    <poly id="bldg_106" type="building" color="184,176,164" fill="1" layer="-5" shape="209.5,113.6 225.2,113.6 225.2,130.5 209.5,130.5 209.5,113.6"/>
    <poly id="bldg_107" type="building" color="196,188,176" fill="1" layer="-5" shape="209.1,136.0 222.7,136.0 222.7,151.4 209.1,151.4 209.1,136.0"/>
    <poly id="bldg_108" type="building" color="196,188,176" fill="1" layer="-5" shape="210.2,161.5 224.2,161.5 224.2,178.1 210.2,178.1 210.2,161.5"/>
    <poly id="park_109" type="park" color="152,190,138" fill="1" layer="-6" shape="209.7,185.8 224.8,185.8 224.8,200.0 209.7,200.0 209.7,185.8"/>
    <poly id="bldg_110" type="building" color="208,200,186" fill="1" layer="-5" shape="207.8,207.5 223.1,207.5 223.1,223.0 207.8,223.0 207.8,207.5"/>
    <poly id="park_111" type="park" color="152,190,138" fill="1" layer="-6" shape="232.3,-31.2 246.9,-31.2 246.9,-14.3 232.3,-14.3 232.3,-31.2"/>
    <poly id="bldg_112" type="building" color="212,198,182" fill="1" layer="-5" shape="234.2,-5.5 248.6,-5.5 248.6,9.9 234.2,9.9 234.2,-5.5"/>
    <poly id="park_113" type="park" color="168,200,148" fill="1" layer="-6" shape="232.7,17.6 247.7,17.6 247.7,33.1 232.7,33.1 232.7,17.6"/>
    <poly id="bldg_114" type="building" color="208,200,186" fill="1" layer="-5" shape="235.6,39.9 249.9,39.9 249.9,55.8 235.6,55.8 235.6,39.9"/>
    <poly id="bldg_115" type="building" color="196,188,176" fill="1" layer="-5" shape="233.7,63.7 248.7,63.7 248.7,79.6 233.7,79.6 233.7,63.7"/>
    <poly id="bldg_116" type="building" color="199,190,178" fill="1" layer="-5" shape="233.8,112.4 249.8,112.4 249.8,129.2 233.8,129.2 233.8,112.4"/>
    <poly id="bldg_117" type="building" color="208,200,186" fill="1" layer="-5" shape="234.2,139.2 248.5,139.2 248.5,153.2 234.2,153.2 234.2,139.2"/>
    <poly id="bldg_118" type="building" color="199,190,178" fill="1" layer="-5" shape="235.7,163.2 249.6,163.2 249.6,177.4 235.7,177.4 235.7,163.2"/>
    <poly id="bldg_119" type="building" color="212,198,182" fill="1" layer="-5" shape="234.8,187.1 249.8,187.1 249.8,202.3 234.8,202.3 234.8,187.1"/>
    <poly id="park_120" type="park" color="152,190,138" fill="1" layer="-6" shape="235.1,210.1 250.4,210.1 250.4,223.9 235.1,223.9 235.1,210.1"/>
    <poly id="bldg_121" type="building" color="175,167,155" fill="1" layer="-5" shape="259.1,-29.8 272.8,-29.8 272.8,-15.4 259.1,-15.4 259.1,-29.8"/>
    <poly id="bldg_122" type="building" color="208,200,186" fill="1" layer="-5" shape="257.2,-9.1 273.4,-9.1 273.4,7.3 257.2,7.3 257.2,-9.1"/>
    <poly id="bldg_123" type="building" color="199,190,178" fill="1" layer="-5" shape="256.5,18.5 273.2,18.5 273.2,32.7 256.5,32.7 256.5,18.5"/>
    <poly id="bldg_124" type="building" color="196,188,176" fill="1" layer="-5" shape="258.7,43.4 273.9,43.4 273.9,58.4 258.7,58.4 258.7,43.4"/>
    <poly id="bldg_125" type="building" color="175,167,155" fill="1" layer="-5" shape="258.5,65.0 274.4,65.0 274.4,79.6 258.5,79.6 258.5,65.0"/>
    <poly id="bldg_126" type="building" color="196,188,176" fill="1" layer="-5" shape="255.9,111.2 272.1,111.2 272.1,127.7 255.9,127.7 255.9,111.2"/>
    <poly id="bldg_127" type="building" color="212,198,182" fill="1" layer="-5" shape="258.1,138.1 273.1,138.1 273.1,152.3 258.1,152.3 258.1,138.1"/>
    <poly id="bldg_128" type="building" color="212,198,182" fill="1" layer="-5" shape="258.4,162.3 272.6,162.3 272.6,177.8 258.4,177.8 258.4,162.3"/>
    <poly id="bldg_129" type="building" color="199,190,178" fill="1" layer="-5" shape="259.7,185.1 273.4,185.1 273.4,200.8 259.7,200.8 259.7,185.1"/>
    <poly id="bldg_130" type="building" color="196,188,176" fill="1" layer="-5" shape="255.9,210.2 271.4,210.2 271.4,224.2 255.9,224.2 255.9,210.2"/>
    <poly id="bldg_131" type="building" color="175,167,155" fill="1" layer="-5" shape="280.6,-32.2 297.1,-32.2 297.1,-16.9 280.6,-16.9 280.6,-32.2"/>
    <poly id="bldg_132" type="building" color="212,198,182" fill="1" layer="-5" shape="282.4,209.0 298.3,209.0 298.3,225.6 282.4,225.6 282.4,209.0"/>
    <poly id="bldg_133" type="building" color="208,200,186" fill="1" layer="-5" shape="304.7,-30.4 320.1,-30.4 320.1,-15.2 304.7,-15.2 304.7,-30.4"/>
    <poly id="bldg_134" type="building" color="199,190,178" fill="1" layer="-5" shape="306.0,208.6 322.7,208.6 322.7,222.2 306.0,222.2 306.0,208.6"/>
    <poly id="bldg_135" type="building" color="212,198,182" fill="1" layer="-5" shape="330.8,-32.0 347.0,-32.0 347.0,-17.5 330.8,-17.5 330.8,-32.0"/>
    <poly id="bldg_136" type="building" color="184,176,164" fill="1" layer="-5" shape="329.4,-5.9 345.8,-5.9 345.8,10.7 329.4,10.7 329.4,-5.9"/>
    <poly id="bldg_137" type="building" color="208,200,186" fill="1" layer="-5" shape="329.9,18.8 345.1,18.8 345.1,34.3 329.9,34.3 329.9,18.8"/>
    <poly id="bldg_138" type="building" color="196,188,176" fill="1" layer="-5" shape="329.0,42.6 346.0,42.6 346.0,58.8 329.0,58.8 329.0,42.6"/>
    <poly id="bldg_139" type="building" color="196,188,176" fill="1" layer="-5" shape="331.1,66.7 345.0,66.7 345.0,80.9 331.1,80.9 331.1,66.7"/>
    <poly id="bldg_140" type="building" color="208,200,186" fill="1" layer="-5" shape="329.1,112.8 343.2,112.8 343.2,128.2 329.1,128.2 329.1,112.8"/>
    <poly id="bldg_141" type="building" color="175,167,155" fill="1" layer="-5" shape="327.4,135.5 344.0,135.5 344.0,151.2 327.4,151.2 327.4,135.5"/>
    <poly id="park_142" type="park" color="152,190,138" fill="1" layer="-6" shape="328.3,161.6 342.8,161.6 342.8,176.1 328.3,176.1 328.3,161.6"/>
    <poly id="bldg_143" type="building" color="175,167,155" fill="1" layer="-5" shape="331.5,186.2 345.7,186.2 345.7,201.3 331.5,201.3 331.5,186.2"/>
    <poly id="bldg_144" type="building" color="212,198,182" fill="1" layer="-5" shape="328.2,211.3 344.2,211.3 344.2,226.4 328.2,226.4 328.2,211.3"/>
    <poly id="bldg_145" type="building" color="199,190,178" fill="1" layer="-5" shape="355.0,-32.0 369.9,-32.0 369.9,-17.2 355.0,-17.2 355.0,-32.0"/>
    <poly id="bldg_146" type="building" color="199,190,178" fill="1" layer="-5" shape="352.3,-4.4 368.1,-4.4 368.1,10.2 352.3,10.2 352.3,-4.4"/>
    <poly id="bldg_147" type="building" color="184,176,164" fill="1" layer="-5" shape="353.8,18.8 370.5,18.8 370.5,35.0 353.8,35.0 353.8,18.8"/>
    <poly id="bldg_148" type="building" color="184,176,164" fill="1" layer="-5" shape="353.9,40.7 370.3,40.7 370.3,55.1 353.9,55.1 353.9,40.7"/>
    <poly id="bldg_149" type="building" color="199,190,178" fill="1" layer="-5" shape="353.8,65.7 369.6,65.7 369.6,82.1 353.8,82.1 353.8,65.7"/>
    <poly id="bldg_150" type="building" color="199,190,178" fill="1" layer="-5" shape="352.7,114.4 368.8,114.4 368.8,128.3 352.7,128.3 352.7,114.4"/>
    <poly id="bldg_151" type="building" color="175,167,155" fill="1" layer="-5" shape="352.5,135.5 368.8,135.5 368.8,152.1 352.5,152.1 352.5,135.5"/>
    <poly id="bldg_152" type="building" color="184,176,164" fill="1" layer="-5" shape="355.4,162.1 369.9,162.1 369.9,178.5 355.4,178.5 355.4,162.1"/>
    <poly id="bldg_153" type="building" color="208,200,186" fill="1" layer="-5" shape="355.0,183.9 369.0,183.9 369.0,200.8 355.0,200.8 355.0,183.9"/>
    <poly id="bldg_154" type="building" color="184,176,164" fill="1" layer="-5" shape="354.0,209.5 370.9,209.5 370.9,226.3 354.0,226.3 354.0,209.5"/>
    <poly id="bldg_155" type="building" color="199,190,178" fill="1" layer="-5" shape="376.1,-30.4 390.6,-30.4 390.6,-16.4 376.1,-16.4 376.1,-30.4"/>
    <poly id="park_156" type="park" color="168,200,148" fill="1" layer="-6" shape="377.5,-7.1 393.9,-7.1 393.9,9.7 377.5,9.7 377.5,-7.1"/>
    <poly id="bldg_157" type="building" color="199,190,178" fill="1" layer="-5" shape="376.5,18.1 393.3,18.1 393.3,32.8 376.5,32.8 376.5,18.1"/>
    <poly id="bldg_158" type="building" color="208,200,186" fill="1" layer="-5" shape="374.9,43.0 391.6,43.0 391.6,57.6 374.9,57.6 374.9,43.0"/>
    <poly id="bldg_159" type="building" color="175,167,155" fill="1" layer="-5" shape="374.7,64.2 391.7,64.2 391.7,78.1 374.7,78.1 374.7,64.2"/>
    <poly id="bldg_160" type="building" color="208,200,186" fill="1" layer="-5" shape="377.3,114.5 394.1,114.5 394.1,129.5 377.3,129.5 377.3,114.5"/>
    <poly id="bldg_161" type="building" color="184,176,164" fill="1" layer="-5" shape="378.3,137.8 394.8,137.8 394.8,153.5 378.3,153.5 378.3,137.8"/>
    <poly id="bldg_162" type="building" color="196,188,176" fill="1" layer="-5" shape="375.6,160.1 390.7,160.1 390.7,176.9 375.6,176.9 375.6,160.1"/>
    <poly id="park_163" type="park" color="152,190,138" fill="1" layer="-6" shape="378.6,184.6 395.3,184.6 395.3,200.4 378.6,200.4 378.6,184.6"/>
    <poly id="bldg_164" type="building" color="199,190,178" fill="1" layer="-5" shape="375.5,207.9 392.0,207.9 392.0,223.1 375.5,223.1 375.5,207.9"/>
    <poly id="bldg_165" type="building" color="175,167,155" fill="1" layer="-5" shape="402.7,-28.5 416.4,-28.5 416.4,-13.7 402.7,-13.7 402.7,-28.5"/>
    <poly id="bldg_166" type="building" color="208,200,186" fill="1" layer="-5" shape="400.1,-5.5 415.6,-5.5 415.6,10.1 400.1,10.1 400.1,-5.5"/>
    <poly id="bldg_167" type="building" color="208,200,186" fill="1" layer="-5" shape="400.0,16.8 416.6,16.8 416.6,30.4 400.0,30.4 400.0,16.8"/>
    <poly id="bldg_168" type="building" color="208,200,186" fill="1" layer="-5" shape="402.8,42.2 419.1,42.2 419.1,56.1 402.8,56.1 402.8,42.2"/>
    <poly id="bldg_169" type="building" color="196,188,176" fill="1" layer="-5" shape="399.9,66.8 414.3,66.8 414.3,81.5 399.9,81.5 399.9,66.8"/>
    <poly id="bldg_170" type="building" color="212,198,182" fill="1" layer="-5" shape="399.9,111.8 415.0,111.8 415.0,126.7 399.9,126.7 399.9,111.8"/>
    <poly id="bldg_171" type="building" color="175,167,155" fill="1" layer="-5" shape="402.1,138.7 415.9,138.7 415.9,154.9 402.1,154.9 402.1,138.7"/>
    <poly id="bldg_172" type="building" color="212,198,182" fill="1" layer="-5" shape="401.4,161.1 415.1,161.1 415.1,178.1 401.4,178.1 401.4,161.1"/>
    <poly id="park_173" type="park" color="168,200,148" fill="1" layer="-6" shape="401.4,186.0 418.1,186.0 418.1,199.9 401.4,199.9 401.4,186.0"/>
    <poly id="bldg_174" type="building" color="175,167,155" fill="1" layer="-5" shape="399.4,208.4 415.1,208.4 415.1,223.8 399.4,223.8 399.4,208.4"/>
    <poly id="bldg_175" type="building" color="199,190,178" fill="1" layer="-5" shape="425.3,-30.2 441.0,-30.2 441.0,-16.2 425.3,-16.2 425.3,-30.2"/>
    <poly id="bldg_176" type="building" color="208,200,186" fill="1" layer="-5" shape="425.6,-5.1 441.6,-5.1 441.6,9.2 425.6,9.2 425.6,-5.1"/>
    <poly id="bldg_177" type="building" color="184,176,164" fill="1" layer="-5" shape="425.2,18.3 440.1,18.3 440.1,34.4 425.2,34.4 425.2,18.3"/>
    <poly id="park_178" type="park" color="168,200,148" fill="1" layer="-6" shape="426.6,40.1 440.7,40.1 440.7,56.9 426.6,56.9 426.6,40.1"/>
    <poly id="bldg_179" type="building" color="175,167,155" fill="1" layer="-5" shape="423.3,63.2 439.4,63.2 439.4,79.6 423.3,79.6 423.3,63.2"/>
    <poly id="bldg_180" type="building" color="199,190,178" fill="1" layer="-5" shape="425.4,112.2 442.0,112.2 442.0,129.0 425.4,129.0 425.4,112.2"/>
    <poly id="bldg_181" type="building" color="208,200,186" fill="1" layer="-5" shape="423.9,137.2 438.5,137.2 438.5,151.1 423.9,151.1 423.9,137.2"/>
    <poly id="bldg_182" type="building" color="184,176,164" fill="1" layer="-5" shape="426.6,159.7 440.6,159.7 440.6,176.1 426.6,176.1 426.6,159.7"/>
    <poly id="bldg_183" type="building" color="175,167,155" fill="1" layer="-5" shape="425.1,185.8 441.5,185.8 441.5,202.7 425.1,202.7 425.1,185.8"/>
    <poly id="bldg_184" type="building" color="196,188,176" fill="1" layer="-5" shape="425.9,209.3 441.5,209.3 441.5,225.1 425.9,225.1 425.9,209.3"/>
    <poly id="park_185" type="park" color="168,200,148" fill="1" layer="-6" shape="448.4,-29.6 463.0,-29.6 463.0,-14.8 448.4,-14.8 448.4,-29.6"/>
    <poly id="park_186" type="park" color="168,200,148" fill="1" layer="-6" shape="450.2,-7.3 464.3,-7.3 464.3,8.5 450.2,8.5 450.2,-7.3"/>
    <poly id="bldg_187" type="building" color="175,167,155" fill="1" layer="-5" shape="449.4,17.5 463.6,17.5 463.6,32.1 449.4,32.1 449.4,17.5"/>
    <poly id="park_188" type="park" color="168,200,148" fill="1" layer="-6" shape="450.3,42.5 464.4,42.5 464.4,58.6 450.3,58.6 450.3,42.5"/>
    <poly id="bldg_189" type="building" color="175,167,155" fill="1" layer="-5" shape="448.5,66.1 463.7,66.1 463.7,81.2 448.5,81.2 448.5,66.1"/>
    <poly id="park_190" type="park" color="152,190,138" fill="1" layer="-6" shape="448.5,113.8 463.8,113.8 463.8,129.6 448.5,129.6 448.5,113.8"/>
    <poly id="bldg_191" type="building" color="184,176,164" fill="1" layer="-5" shape="451.8,134.8 466.1,134.8 466.1,151.6 451.8,151.6 451.8,134.8"/>
    <poly id="bldg_192" type="building" color="175,167,155" fill="1" layer="-5" shape="448.5,159.9 463.8,159.9 463.8,175.0 448.5,175.0 448.5,159.9"/>
    <poly id="park_193" type="park" color="168,200,148" fill="1" layer="-6" shape="449.6,184.8 466.0,184.8 466.0,201.2 449.6,201.2 449.6,184.8"/>
    <poly id="bldg_194" type="building" color="212,198,182" fill="1" layer="-5" shape="449.8,209.5 463.7,209.5 463.7,224.2 449.8,224.2 449.8,209.5"/>
    <poly id="bldg_195" type="building" color="175,167,155" fill="1" layer="-5" shape="474.8,-30.2 488.8,-30.2 488.8,-16.5 474.8,-16.5 474.8,-30.2"/>
    <poly id="park_196" type="park" color="152,190,138" fill="1" layer="-6" shape="473.4,-5.8 488.3,-5.8 488.3,9.3 473.4,9.3 473.4,-5.8"/>
    <poly id="bldg_197" type="building" color="184,176,164" fill="1" layer="-5" shape="473.9,17.8 488.8,17.8 488.8,32.4 473.9,32.4 473.9,17.8"/>
    <poly id="bldg_198" type="building" color="184,176,164" fill="1" layer="-5" shape="474.2,39.6 490.0,39.6 490.0,55.0 474.2,55.0 474.2,39.6"/>
    <poly id="park_199" type="park" color="152,190,138" fill="1" layer="-6" shape="472.5,67.8 488.3,67.8 488.3,81.9 472.5,81.9 472.5,67.8"/>
    <poly id="bldg_200" type="building" color="175,167,155" fill="1" layer="-5" shape="474.9,113.5 489.1,113.5 489.1,129.7 474.9,129.7 474.9,113.5"/>
    <poly id="bldg_201" type="building" color="175,167,155" fill="1" layer="-5" shape="473.7,137.0 490.4,137.0 490.4,152.6 473.7,152.6 473.7,137.0"/>
    <poly id="bldg_202" type="building" color="199,190,178" fill="1" layer="-5" shape="473.0,163.3 487.6,163.3 487.6,178.4 473.0,178.4 473.0,163.3"/>
    <poly id="bldg_203" type="building" color="212,198,182" fill="1" layer="-5" shape="473.3,184.4 487.1,184.4 487.1,199.8 473.3,199.8 473.3,184.4"/>