<?xml version="1.0" encoding="UTF-8"?>

<!-- generated on 2026-06-07T16:27:13.647800+00:00 by Eclipse SUMO netgenerate 1.26.0
<netgenerateConfiguration xmlns:xsi="http://www.w3.org/2001/XMLSchema-instance" xsi:noNamespaceSchemaLocation="http://sumo.dlr.de/xsd/netgenerateConfiguration.xsd">

    <grid_network>
        <grid value="true"/>
        <grid.length value="300"/>
        <grid.x-number value="3"/>
        <grid.y-number value="1"/>
    </grid_network>

    <output>
        <output-file value="envs/boulevard_coordonne/env.net.xml"/>
    </output>

    <tls_building>
        <tls.guess value="true"/>
    </tls_building>

</netgenerateConfiguration>
-->

<net version="1.20" junctionCornerDetail="5" limitTurnSpeed="5.50" xmlns:xsi="http://www.w3.org/2001/XMLSchema-instance" xsi:noNamespaceSchemaLocation="http://sumo.dlr.de/xsd/net_file.xsd">

    <location netOffset="0.00,0.00" convBoundary="0.00,0.00,600.00,0.00" origBoundary="0.00,0.00,600.00,0.00" projParameter="!"/>

    <edge id=":A0_0" function="internal">
        <lane id=":A0_0_0" index="0" speed="3.65" length="4.67" shape="0.00,1.60 -1.20,0.80 -1.60,0.00 -1.20,-0.80 0.00,-1.60"/>
    </edge>
    <edge id=":B0_0" function="internal">
        <lane id=":B0_0_0" index="0" speed="13.89" length="0.10" shape="300.00,1.60 300.00,1.60"/>
    </edge>
    <edge id=":B0_1" function="internal">
        <lane id=":B0_1_0" index="0" speed="13.89" length="0.10" shape="300.00,-1.60 300.00,-1.60"/>
    </edge>
    <edge id=":C0_0" function="internal">
        <lane id=":C0_0_0" index="0" speed="3.65" length="4.67" shape="600.00,-1.60 601.20,-0.80 601.60,0.00 601.20,0.80 600.00,1.60"/>
    </edge>

    <edge id="A0B0" from="A0" to="B0" priority="-1">
        <lane id="A0B0_0" index="0" speed="13.89" length="300.00" shape="0.00,-1.60 300.00,-1.60"/>
    </edge>
    <edge id="B0A0" from="B0" to="A0" priority="-1">
        <lane id="B0A0_0" index="0" speed="13.89" length="300.00" shape="300.00,1.60 0.00,1.60"/>
    </edge>
    <edge id="B0C0" from="B0" to="C0" priority="-1">
        <lane id="B0C0_0" index="0" speed="13.89" length="300.00" shape="300.00,-1.60 600.00,-1.60"/>
    </edge>
    <edge id="C0B0" from="C0" to="B0" priority="-1">
        <lane id="C0B0_0" index="0" speed="13.89" length="300.00" shape="600.00,1.60 300.00,1.60"/>
    </edge>

    <junction id="A0" type="priority" x="0.00" y="0.00" incLanes="B0A0_0" intLanes=":A0_0_0" shape="0.00,0.00 0.00,3.20 0.00,0.00">
        <request index="0" response="0" foes="0" cont="0"/>
    </junction>
    <junction id="B0" type="priority" x="300.00" y="0.00" incLanes="C0B0_0 A0B0_0" intLanes=":B0_0_0 :B0_1_0" shape="300.00,3.20 300.00,-3.20 300.00,3.20">
        <request index="0" response="00" foes="00" cont="0"/>
        <request index="1" response="00" foes="00" cont="0"/>
    </junction>
    <junction id="C0" type="priority" x="600.00" y="0.00" incLanes="B0C0_0" intLanes=":C0_0_0" shape="600.00,0.00 600.00,-3.20 600.00,0.00">
        <request index="0" response="0" foes="0" cont="0"/>
    </junction>

    <connection from="A0B0" to="B0C0" fromLane="0" toLane="0" via=":B0_1_0" dir="s" state="M"/>
    <connection from="B0A0" to="A0B0" fromLane="0" toLane="0" via=":A0_0_0" dir="t" state="M"/>
    <connection from="B0C0" to="C0B0" fromLane="0" toLane="0" via=":C0_0_0" dir="t" state="M"/>
    <connection from="C0B0" to="B0A0" fromLane="0" toLane="0" via=":B0_0_0" dir="s" state="M"/>

    <connection from=":A0_0" to="A0B0" fromLane="0" toLane="0" dir="t" state="M"/>
    <connection from=":B0_0" to="B0A0" fromLane="0" toLane="0" dir="s" state="M"/>
    <connection from=":B0_1" to="B0C0" fromLane="0" toLane="0" dir="s" state="M"/>
    <connection from=":C0_0" to="C0B0" fromLane="0" toLane="0" dir="t" state="M"/>

</net>
