<?xml version="1.0" encoding="UTF-8"?>

<!-- generated on 2026-06-19T15:29:27.938757+00:00 by Eclipse SUMO netconvert 1.26.0
<netconvertConfiguration xmlns:xsi="http://www.w3.org/2001/XMLSchema-instance" xsi:noNamespaceSchemaLocation="http://sumo.dlr.de/xsd/netconvertConfiguration.xsd">

    <input>
        <node-files value="C:\Users\tahae\AppData\Local\Temp\realnet_zyjtkzp1\p.nod.xml"/>
        <edge-files value="C:\Users\tahae\AppData\Local\Temp\realnet_zyjtkzp1\p.edg.xml"/>
        <connection-files value="C:\Users\tahae\AppData\Local\Temp\realnet_zyjtkzp1\p.con.xml"/>
        <tllogic-files value="C:\Users\tahae\AppData\Local\Temp\realnet_zyjtkzp1\custom.tll.xml"/>
    </input>

    <output>
        <output-file value="envs/boulevard_coordonne/env.net.xml"/>
    </output>

    <building_defaults>
        <default.sidewalk-width value="2.0"/>
    </building_defaults>

    <pedestrian>
        <sidewalks.guess value="true"/>
        <crossings.guess value="true"/>
        <walkingareas value="true"/>
    </pedestrian>

</netconvertConfiguration>
-->

<net version="1.20" junctionCornerDetail="5" walkingareas="true" limitTurnSpeed="5.50" xmlns:xsi="http://www.w3.org/2001/XMLSchema-instance" xsi:noNamespaceSchemaLocation="http://sumo.dlr.de/xsd/net_file.xsd">

    <location netOffset="0.00,100.00" convBoundary="0.00,0.00,900.00,200.00" origBoundary="0.00,-100.00,900.00,100.00" projParameter="!"/>

    <edge id=":B0_0" function="internal">
        <lane id=":B0_0_0" index="0" disallow="pedestrian" speed="13.89" length="12.40" shape="298.40,102.00 298.40,89.60"/>
    </edge>
    <edge id=":B0_1" function="internal">
        <lane id=":B0_1_0" index="0" disallow="pedestrian" speed="6.92" length="1.67" shape="298.40,102.00 298.95,100.43"/>
    </edge>
    <edge id=":B0_2" function="internal">
        <lane id=":B0_2_0" index="0" disallow="pedestrian" speed="3.65" length="1.44" shape="298.40,102.00 299.20,100.80"/>
    </edge>
    <edge id=":B0_10" function="internal">
        <lane id=":B0_10_0" index="0" disallow="pedestrian" speed="6.92" length="8.69" shape="298.95,100.43 300.60,99.30 303.35,98.62 307.20,98.40"/>
    </edge>
    <edge id=":B0_11" function="internal">
        <lane id=":B0_11_0" index="0" disallow="pedestrian" speed="3.65" length="3.23" shape="299.20,100.80 300.00,100.40 300.80,100.80 301.60,102.00"/>
    </edge>
    <edge id=":B0_3" function="internal">
        <lane id=":B0_3_0" index="0" disallow="pedestrian" speed="6.51" length="4.75" shape="301.60,89.60 301.95,92.05 303.00,93.80 303.20,93.92"/>
    </edge>
    <edge id=":B0_4" function="internal">
        <lane id=":B0_4_0" index="0" disallow="pedestrian" speed="13.89" length="12.40" shape="301.60,89.60 301.60,102.00"/>
    </edge>
    <edge id=":B0_5" function="internal">
        <lane id=":B0_5_0" index="0" disallow="pedestrian" speed="3.65" length="1.44" shape="301.60,89.60 300.80,90.80"/>
    </edge>
    <edge id=":B0_12" function="internal">
        <lane id=":B0_12_0" index="0" disallow="pedestrian" speed="6.51" length="4.28" shape="303.20,93.92 304.75,94.85 307.20,95.20"/>
    </edge>
    <edge id=":B0_13" function="internal">
        <lane id=":B0_13_0" index="0" disallow="pedestrian" speed="3.65" length="3.23" shape="300.80,90.80 300.00,91.20 299.20,90.80 298.40,89.60"/>
    </edge>
    <edge id=":B0_6" function="internal">
        <lane id=":B0_6_0" index="0" disallow="pedestrian" speed="6.51" length="4.75" shape="292.80,95.20 295.25,94.85 297.00,93.80 297.12,93.60"/>
    </edge>
    <edge id=":B0_7" function="internal">
        <lane id=":B0_7_0" index="0" disallow="pedestrian" speed="13.89" length="14.40" shape="292.80,95.20 307.20,95.20"/>
        <lane id=":B0_7_1" index="1" disallow="pedestrian" speed="13.89" length="14.40" shape="292.80,98.40 307.20,98.40"/>
    </edge>
    <edge id=":B0_9" function="internal">
        <lane id=":B0_9_0" index="0" disallow="pedestrian" speed="6.92" length="10.35" shape="292.80,98.40 296.65,98.62 299.40,99.30 301.05,100.43 301.60,102.00"/>
    </edge>
    <edge id=":B0_14" function="internal">
        <lane id=":B0_14_0" index="0" disallow="pedestrian" speed="6.51" length="4.28" shape="297.12,93.60 298.05,92.05 298.40,89.60"/>
    </edge>
    <edge id=":B0_c0" function="crossing" crossingEdges="out_N_B0 in_N_B0">
        <lane id=":B0_c0_0" index="0" allow="pedestrian" speed="2.78" length="6.40" width="4.00" shape="303.20,100.00 296.80,100.00" outlineShape="303.20,102.00 296.80,102.00 296.69,101.39 296.36,100.89 295.80,100.50 295.02,100.22 294.45,100.13 296.80,98.00 303.20,98.00 305.55,100.13 304.98,100.22 304.20,100.50 303.64,100.89 303.31,101.39"/>
    </edge>
    <edge id=":B0_c1" function="crossing" crossingEdges="B0C0">
        <lane id=":B0_c1_0" index="0" allow="pedestrian" speed="2.78" length="6.40" width="4.00" shape="305.20,93.60 305.20,100.00" outlineShape="307.20,93.50 307.20,100.10 303.20,102.00 305.20,102.00 307.20,100.00 303.20,100.00 303.20,93.60 303.53,91.49 303.64,91.82 304.20,92.60 304.98,93.16 305.98,93.49"/>
    </edge>
    <edge id=":B0_c2" function="crossing" crossingEdges="out_S_B0 in_S_B0">
        <lane id=":B0_c2_0" index="0" allow="pedestrian" speed="2.78" length="6.40" width="4.00" shape="296.80,91.60 303.20,91.60" outlineShape="296.80,89.60 303.20,89.60 307.20,93.60 307.20,91.60 305.20,89.60 303.20,89.60 307.20,93.60 292.80,93.60 294.02,93.49 295.02,93.16 295.80,92.60 296.36,91.82 296.69,90.82"/>
    </edge>
    <edge id=":B0_c3" function="crossing" crossingEdges="A0B0">
        <lane id=":B0_c3_0" index="0" allow="pedestrian" speed="2.78" length="6.40" width="4.00" shape="294.80,100.00 294.80,93.60" outlineShape="292.80,100.10 292.80,93.50 294.02,93.49 295.02,93.16 295.80,92.60 296.36,91.82 296.47,91.49 296.80,93.60 296.80,100.00 296.80,102.00 296.69,101.39 296.36,100.89 295.80,100.50 295.02,100.22 294.02,100.06"/>
    </edge>
    <edge id=":B0_w0" function="walkingarea">
        <lane id=":B0_w0_0" index="0" allow="pedestrian" speed="2.78" length="2.16" width="4.00" shape="292.80,100.00 294.80,102.00 296.80,102.00 296.69,101.39 296.36,100.89 295.80,100.50 295.02,100.22 294.02,100.06"/>
    </edge>
    <edge id=":B0_w1" function="walkingarea">
        <lane id=":B0_w1_0" index="0" allow="pedestrian" speed="2.78" length="2.16" width="4.00" shape="303.20,102.00 305.20,102.00 307.20,100.00 305.98,100.06 304.98,100.22 304.20,100.50 303.64,100.89 303.31,101.39"/>
    </edge>
    <edge id=":B0_w2" function="walkingarea">
        <lane id=":B0_w2_0" index="0" allow="pedestrian" speed="2.78" length="3.30" width="4.00" shape="307.20,93.60 307.20,91.60 305.20,89.60 303.20,89.60 303.31,90.82 303.64,91.82 304.20,92.60 304.98,93.16 305.98,93.49"/>
    </edge>
    <edge id=":B0_w3" function="walkingarea">
        <lane id=":B0_w3_0" index="0" allow="pedestrian" speed="2.78" length="3.30" width="4.00" shape="296.80,89.60 294.80,89.60 292.80,91.60 292.80,93.60 294.02,93.49 295.02,93.16 295.80,92.60 296.36,91.82 296.69,90.82"/>
    </edge>
    <edge id=":C0_0" function="internal">
        <lane id=":C0_0_0" index="0" disallow="pedestrian" speed="13.89" length="12.40" shape="598.40,102.00 598.40,89.60"/>
    </edge>
    <edge id=":C0_1" function="internal">
        <lane id=":C0_1_0" index="0" disallow="pedestrian" speed="6.92" length="1.67" shape="598.40,102.00 598.95,100.43"/>
    </edge>
    <edge id=":C0_2" function="internal">
        <lane id=":C0_2_0" index="0" disallow="pedestrian" speed="3.65" length="1.44" shape="598.40,102.00 599.20,100.80"/>
    </edge>
    <edge id=":C0_10" function="internal">
        <lane id=":C0_10_0" index="0" disallow="pedestrian" speed="6.92" length="8.69" shape="598.95,100.43 600.60,99.30 603.35,98.62 607.20,98.40"/>
    </edge>
    <edge id=":C0_11" function="internal">
        <lane id=":C0_11_0" index="0" disallow="pedestrian" speed="3.65" length="3.23" shape="599.20,100.80 600.00,100.40 600.80,100.80 601.60,102.00"/>
    </edge>
    <edge id=":C0_3" function="internal">
        <lane id=":C0_3_0" index="0" disallow="pedestrian" speed="6.51" length="4.75" shape="601.60,89.60 601.95,92.05 603.00,93.80 603.20,93.92"/>
    </edge>
    <edge id=":C0_4" function="internal">
        <lane id=":C0_4_0" index="0" disallow="pedestrian" speed="13.89" length="12.40" shape="601.60,89.60 601.60,102.00"/>
    </edge>
    <edge id=":C0_5" function="internal">
        <lane id=":C0_5_0" index="0" disallow="pedestrian" speed="3.65" length="1.44" shape="601.60,89.60 600.80,90.80"/>
    </edge>
    <edge id=":C0_12" function="internal">
        <lane id=":C0_12_0" index="0" disallow="pedestrian" speed="6.51" length="4.28" shape="603.20,93.92 604.75,94.85 607.20,95.20"/>
    </edge>
    <edge id=":C0_13" function="internal">
        <lane id=":C0_13_0" index="0" disallow="pedestrian" speed="3.65" length="3.23" shape="600.80,90.80 600.00,91.20 599.20,90.80 598.40,89.60"/>
    </edge>
    <edge id=":C0_6" function="internal">
        <lane id=":C0_6_0" index="0" disallow="pedestrian" speed="6.51" length="4.75" shape="592.80,95.20 595.25,94.85 597.00,93.80 597.12,93.60"/>
    </edge>
    <edge id=":C0_7" function="internal">
        <lane id=":C0_7_0" index="0" disallow="pedestrian" speed="13.89" length="14.40" shape="592.80,95.20 607.20,95.20"/>
        <lane id=":C0_7_1" index="1" disallow="pedestrian" speed="13.89" length="14.40" shape="592.80,98.40 607.20,98.40"/>
    </edge>
    <edge id=":C0_9" function="internal">
        <lane id=":C0_9_0" index="0" disallow="pedestrian" speed="6.92" length="10.35" shape="592.80,98.40 596.65,98.62 599.40,99.30 601.05,100.43 601.60,102.00"/>
    </edge>
    <edge id=":C0_14" function="internal">
        <lane id=":C0_14_0" index="0" disallow="pedestrian" speed="6.51" length="4.28" shape="597.12,93.60 598.05,92.05 598.40,89.60"/>
    </edge>
    <edge id=":C0_c0" function="crossing" crossingEdges="out_N_C0 in_N_C0">
        <lane id=":C0_c0_0" index="0" allow="pedestrian" speed="2.78" length="6.40" width="4.00" shape="603.20,100.00 596.80,100.00" outlineShape="603.20,102.00 596.80,102.00 596.69,101.39 596.36,100.89 595.80,100.50 595.02,100.22 594.45,100.13 596.80,98.00 603.20,98.00 605.55,100.13 604.98,100.22 604.20,100.50 603.64,100.89 603.31,101.39"/>
    </edge>
    <edge id=":C0_c1" function="crossing" crossingEdges="C0D0">
        <lane id=":C0_c1_0" index="0" allow="pedestrian" speed="2.78" length="6.40" width="4.00" shape="605.20,93.60 605.20,100.00" outlineShape="607.20,93.50 607.20,100.10 603.20,102.00 605.20,102.00 607.20,100.00 603.20,100.00 603.20,93.60 603.53,91.49 603.64,91.82 604.20,92.60 604.98,93.16 605.98,93.49"/>
    </edge>
    <edge id=":C0_c2" function="crossing" crossingEdges="out_S_C0 in_S_C0">
        <lane id=":C0_c2_0" index="0" allow="pedestrian" speed="2.78" length="6.40" width="4.00" shape="596.80,91.60 603.20,91.60" outlineShape="596.80,89.60 603.20,89.60 607.20,93.60 607.20,91.60 605.20,89.60 603.20,89.60 607.20,93.60 592.80,93.60 594.02,93.49 595.02,93.16 595.80,92.60 596.36,91.82 596.69,90.82"/>
    </edge>
    <edge id=":C0_c3" function="crossing" crossingEdges="B0C0">
        <lane id=":C0_c3_0" index="0" allow="pedestrian" speed="2.78" length="6.40" width="4.00" shape="594.80,100.00 594.80,93.60" outlineShape="592.80,100.10 592.80,93.50 594.02,93.49 595.02,93.16 595.80,92.60 596.36,91.82 596.47,91.49 596.80,93.60 596.80,100.00 596.80,102.00 596.69,101.39 596.36,100.89 595.80,100.50 595.02,100.22 594.02,100.06"/>
    </edge>
    <edge id=":C0_w0" function="walkingarea">
        <lane id=":C0_w0_0" index="0" allow="pedestrian" speed="2.78" length="2.16" width="4.00" shape="592.80,100.00 594.80,102.00 596.80,102.00 596.69,101.39 596.36,100.89 595.80,100.50 595.02,100.22 594.02,100.06"/>
    </edge>
    <edge id=":C0_w1" function="walkingarea">
        <lane id=":C0_w1_0" index="0" allow="pedestrian" speed="2.78" length="2.16" width="4.00" shape="603.20,102.00 605.20,102.00 607.20,100.00 605.98,100.06 604.98,100.22 604.20,100.50 603.64,100.89 603.31,101.39"/>
    </edge>
    <edge id=":C0_w2" function="walkingarea">
        <lane id=":C0_w2_0" index="0" allow="pedestrian" speed="2.78" length="3.30" width="4.00" shape="607.20,93.60 607.20,91.60 605.20,89.60 603.20,89.60 603.31,90.82 603.64,91.82 604.20,92.60 604.98,93.16 605.98,93.49"/>
    </edge>
    <edge id=":C0_w3" function="walkingarea">
        <lane id=":C0_w3_0" index="0" allow="pedestrian" speed="2.78" length="3.30" width="4.00" shape="596.80,89.60 594.80,89.60 592.80,91.60 592.80,93.60 594.02,93.49 595.02,93.16 595.80,92.60 596.36,91.82 596.69,90.82"/>
    </edge>
    <edge id=":N_B0_0" function="internal">
        <lane id=":N_B0_0_0" index="0" disallow="pedestrian" speed="3.65" length="4.67" shape="301.60,200.00 300.80,201.20 300.00,201.60 299.20,201.20 298.40,200.00"/>
    </edge>
    <edge id=":N_B0_w0" function="walkingarea">
        <lane id=":N_B0_w0_0" index="0" allow="pedestrian" speed="2.78" length="8.40" width="2.00" shape="296.80,200.00 294.80,200.00 305.20,200.00 303.20,200.00"/>
    </edge>
    <edge id=":N_C0_0" function="internal">
        <lane id=":N_C0_0_0" index="0" disallow="pedestrian" speed="3.65" length="4.67" shape="601.60,200.00 600.80,201.20 600.00,201.60 599.20,201.20 598.40,200.00"/>
    </edge>
    <edge id=":N_C0_w0" function="walkingarea">
        <lane id=":N_C0_w0_0" index="0" allow="pedestrian" speed="2.78" length="8.40" width="2.00" shape="596.80,200.00 594.80,200.00 605.20,200.00 603.20,200.00"/>
    </edge>
    <edge id=":S_B0_0" function="internal">
        <lane id=":S_B0_0_0" index="0" disallow="pedestrian" speed="3.65" length="4.67" shape="298.40,0.00 299.20,-1.20 300.00,-1.60 300.80,-1.20 301.60,0.00"/>
    </edge>
    <edge id=":S_B0_w0" function="walkingarea">
        <lane id=":S_B0_w0_0" index="0" allow="pedestrian" speed="2.78" length="8.40" width="2.00" shape="303.20,0.00 305.20,0.00 294.80,0.00 296.80,0.00"/>
    </edge>
    <edge id=":S_C0_0" function="internal">
        <lane id=":S_C0_0_0" index="0" disallow="pedestrian" speed="3.65" length="4.67" shape="598.40,0.00 599.20,-1.20 600.00,-1.60 600.80,-1.20 601.60,0.00"/>
    </edge>
    <edge id=":S_C0_w0" function="walkingarea">
        <lane id=":S_C0_w0_0" index="0" allow="pedestrian" speed="2.78" length="8.40" width="2.00" shape="603.20,0.00 605.20,0.00 594.80,0.00 596.80,0.00"/>
    </edge>

    <edge id="A0B0" from="A0" to="B0" priority="-1">
        <lane id="A0B0_0" index="0" allow="pedestrian" speed="13.89" length="292.80" width="2.00" shape="0.00,92.60 292.80,92.60"/>
        <lane id="A0B0_1" index="1" disallow="pedestrian" speed="13.89" length="292.80" shape="0.00,95.20 292.80,95.20"/>
        <lane id="A0B0_2" index="2" disallow="pedestrian" speed="13.89" length="292.80" shape="0.00,98.40 292.80,98.40"/>
    </edge>
    <edge id="B0C0" from="B0" to="C0" priority="-1">
        <lane id="B0C0_0" index="0" allow="pedestrian" speed="13.89" length="285.60" width="2.00" shape="307.20,92.60 592.80,92.60"/>
        <lane id="B0C0_1" index="1" disallow="pedestrian" speed="13.89" length="285.60" shape="307.20,95.20 592.80,95.20"/>
        <lane id="B0C0_2" index="2" disallow="pedestrian" speed="13.89" length="285.60" shape="307.20,98.40 592.80,98.40"/>
    </edge>
    <edge id="C0D0" from="C0" to="D0" priority="-1">
        <lane id="C0D0_0" index="0" allow="pedestrian" speed="13.89" length="292.80" width="2.00" shape="607.20,92.60 900.00,92.60"/>
        <lane id="C0D0_1" index="1" disallow="pedestrian" speed="13.89" length="292.80" shape="607.20,95.20 900.00,95.20"/>
        <lane id="C0D0_2" index="2" disallow="pedestrian" speed="13.89" length="292.80" shape="607.20,98.40 900.00,98.40"/>
    </edge>
    <edge id="in_N_B0" from="N_B0" to="B0" priority="-1">
        <lane id="in_N_B0_0" index="0" allow="pedestrian" speed="13.89" length="98.00" width="2.00" shape="295.80,200.00 295.80,102.00"/>
        <lane id="in_N_B0_1" index="1" disallow="pedestrian" speed="13.89" length="98.00" shape="298.40,200.00 298.40,102.00"/>
    </edge>
    <edge id="in_N_C0" from="N_C0" to="C0" priority="-1">
        <lane id="in_N_C0_0" index="0" allow="pedestrian" speed="13.89" length="98.00" width="2.00" shape="595.80,200.00 595.80,102.00"/>
        <lane id="in_N_C0_1" index="1" disallow="pedestrian" speed="13.89" length="98.00" shape="598.40,200.00 598.40,102.00"/>
    </edge>
    <edge id="in_S_B0" from="S_B0" to="B0" priority="-1">
        <lane id="in_S_B0_0" index="0" allow="pedestrian" speed="13.89" length="89.60" width="2.00" shape="304.20,0.00 304.20,89.60"/>
        <lane id="in_S_B0_1" index="1" disallow="pedestrian" speed="13.89" length="89.60" shape="301.60,0.00 301.60,89.60"/>
    </edge>
    <edge id="in_S_C0" from="S_C0" to="C0" priority="-1">
        <lane id="in_S_C0_0" index="0" allow="pedestrian" speed="13.89" length="89.60" width="2.00" shape="604.20,0.00 604.20,89.60"/>
        <lane id="in_S_C0_1" index="1" disallow="pedestrian" speed="13.89" length="89.60" shape="601.60,0.00 601.60,89.60"/>
    </edge>
    <edge id="out_N_B0" from="B0" to="N_B0" priority="-1">
        <lane id="out_N_B0_0" index="0" allow="pedestrian" speed="13.89" length="98.00" width="2.00" shape="304.20,102.00 304.20,200.00"/>
        <lane id="out_N_B0_1" index="1" disallow="pedestrian" speed="13.89" length="98.00" shape="301.60,102.00 301.60,200.00"/>
    </edge>
    <edge id="out_N_C0" from="C0" to="N_C0" priority="-1">
        <lane id="out_N_C0_0" index="0" allow="pedestrian" speed="13.89" length="98.00" width="2.00" shape="604.20,102.00 604.20,200.00"/>
        <lane id="out_N_C0_1" index="1" disallow="pedestrian" speed="13.89" length="98.00" shape="601.60,102.00 601.60,200.00"/>
    </edge>
    <edge id="out_S_B0" from="B0" to="S_B0" priority="-1">
        <lane id="out_S_B0_0" index="0" allow="pedestrian" speed="13.89" length="89.60" width="2.00" shape="295.80,89.60 295.80,0.00"/>
        <lane id="out_S_B0_1" index="1" disallow="pedestrian" speed="13.89" length="89.60" shape="298.40,89.60 298.40,0.00"/>
    </edge>
    <edge id="out_S_C0" from="C0" to="S_C0" priority="-1">
        <lane id="out_S_C0_0" index="0" allow="pedestrian" speed="13.89" length="89.60" width="2.00" shape="595.80,89.60 595.80,0.00"/>
        <lane id="out_S_C0_1" index="1" disallow="pedestrian" speed="13.89" length="89.60" shape="598.40,89.60 598.40,0.00"/>
    </edge>

    <tlLogic id="B0" type="static" programID="0" offset="0">
        <phase duration="42" state="GggGGgrrrrrrrr"/>
        <phase duration="3"  state="yyyyyyrrrrrrrr"/>
        <phase duration="42" state="rrrrrrGGGGrrrr"/>
        <phase duration="3"  state="rrrrrryyyyrrrr"/>
    </tlLogic>
    <tlLogic id="C0" type="static" programID="0" offset="0">
        <phase duration="42" state="GggGGgrrrrrrrr"/>
        <phase duration="3"  state="yyyyyyrrrrrrrr"/>
        <phase duration="42" state="rrrrrrGGGGrrrr"/>
        <phase duration="3"  state="rrrrrryyyyrrrr"/>
    </tlLogic>

    <junction id="A0" type="dead_end" x="0.00" y="100.00" incLanes="" intLanes="" shape="0.00,100.00 0.00,91.60"/>
    <junction id="B0" type="traffic_light" x="300.00" y="100.00" incLanes="in_N_B0_0 in_N_B0_1 in_S_B0_0 in_S_B0_1 A0B0_0 A0B0_1 A0B0_2 :B0_w1_0 :B0_w2_0 :B0_w3_0 :B0_w0_0" intLanes=":B0_0_0 :B0_10_0 :B0_11_0 :B0_12_0 :B0_4_0 :B0_13_0 :B0_14_0 :B0_7_0 :B0_7_1 :B0_9_0 :B0_c0_0 :B0_c1_0 :B0_c2_0 :B0_c3_0" shape="294.80,102.00 305.20,102.00 305.42,100.89 305.70,100.50 306.09,100.22 306.59,100.06 307.20,100.00 307.20,91.60 306.09,91.38 305.70,91.10 305.42,90.71 305.26,90.21 305.20,89.60 294.80,89.60 294.58,90.71 294.30,91.10 293.91,91.38 293.41,91.54 292.80,91.60 292.80,100.00 293.91,100.22 294.30,100.50 294.58,100.89 294.74,101.39">
        <request index="0"  response="01011111000000" foes="01011111100000" cont="0"/>
        <request index="1"  response="00111110010000" foes="00111110010000" cont="1"/>
        <request index="2"  response="00011000010000" foes="00011000010000" cont="1"/>
        <request index="3"  response="01100110000000" foes="01100110000000" cont="1"/>
        <request index="4"  response="01011110000000" foes="01011110000110" cont="0"/>
        <request index="5"  response="01000001000001" foes="01000001000001" cont="1"/>
        <request index="6"  response="11000000000000" foes="11000000100001" cont="1"/>
        <request index="7"  response="10100000001000" foes="10100000011011" cont="0"/>
        <request index="8"  response="10100000000010" foes="10100000011011" cont="0"/>
        <request index="9"  response="10010000000010" foes="10010000010111" cont="0"/>
        <request index="10" response="00000000000000" foes="00001000010111" cont="0"/>
        <request index="11" response="00000000000000" foes="00000110001010" cont="0"/>
        <request index="12" response="00000000000000" foes="00000001111001" cont="0"/>
        <request index="13" response="00000000000000" foes="00001111000000" cont="0"/>
    </junction>
    <junction id="C0" type="traffic_light" x="600.00" y="100.00" incLanes="in_N_C0_0 in_N_C0_1 in_S_C0_0 in_S_C0_1 B0C0_0 B0C0_1 B0C0_2 :C0_w1_0 :C0_w2_0 :C0_w3_0 :C0_w0_0" intLanes=":C0_0_0 :C0_10_0 :C0_11_0 :C0_12_0 :C0_4_0 :C0_13_0 :C0_14_0 :C0_7_0 :C0_7_1 :C0_9_0 :C0_c0_0 :C0_c1_0 :C0_c2_0 :C0_c3_0" shape="594.80,102.00 605.20,102.00 605.42,100.89 605.70,100.50 606.09,100.22 606.59,100.06 607.20,100.00 607.20,91.60 606.09,91.38 605.70,91.10 605.42,90.71 605.26,90.21 605.20,89.60 594.80,89.60 594.58,90.71 594.30,91.10 593.91,91.38 593.41,91.54 592.80,91.60 592.80,100.00 593.91,100.22 594.30,100.50 594.58,100.89 594.74,101.39">
        <request index="0"  response="01011111000000" foes="01011111100000" cont="0"/>
        <request index="1"  response="00111110010000" foes="00111110010000" cont="1"/>
        <request index="2"  response="00011000010000" foes="00011000010000" cont="1"/>
        <request index="3"  response="01100110000000" foes="01100110000000" cont="1"/>
        <request index="4"  response="01011110000000" foes="01011110000110" cont="0"/>
        <request index="5"  response="01000001000001" foes="01000001000001" cont="1"/>
        <request index="6"  response="11000000000000" foes="11000000100001" cont="1"/>
        <request index="7"  response="10100000001000" foes="10100000011011" cont="0"/>
        <request index="8"  response="10100000000010" foes="10100000011011" cont="0"/>
        <request index="9"  response="10010000000010" foes="10010000010111" cont="0"/>
        <request index="10" response="00000000000000" foes="00001000010111" cont="0"/>
        <request index="11" response="00000000000000" foes="00000110001010" cont="0"/>
        <request index="12" response="00000000000000" foes="00000001111001" cont="0"/>
        <request index="13" response="00000000000000" foes="00001111000000" cont="0"/>
    </junction>
    <junction id="D0" type="dead_end" x="900.00" y="100.00" incLanes="C0D0_0 C0D0_1 C0D0_2" intLanes="" shape="900.00,91.60 900.00,100.00"/>
    <junction id="N_B0" type="priority" x="300.00" y="200.00" incLanes="out_N_B0_0 out_N_B0_1" intLanes=":N_B0_0_0" shape="300.00,200.00 305.20,200.00 300.00,200.00">
        <request index="0" response="0" foes="0" cont="0"/>
    </junction>
    <junction id="N_C0" type="priority" x="600.00" y="200.00" incLanes="out_N_C0_0 out_N_C0_1" intLanes=":N_C0_0_0" shape="600.00,200.00 605.20,200.00 600.00,200.00">
        <request index="0" response="0" foes="0" cont="0"/>
    </junction>
    <junction id="S_B0" type="priority" x="300.00" y="0.00" incLanes="out_S_B0_0 out_S_B0_1" intLanes=":S_B0_0_0" shape="300.00,0.00 294.80,0.00 300.00,0.00">
        <request index="0" response="0" foes="0" cont="0"/>
    </junction>
    <junction id="S_C0" type="priority" x="600.00" y="0.00" incLanes="out_S_C0_0 out_S_C0_1" intLanes=":S_C0_0_0" shape="600.00,0.00 594.80,0.00 600.00,0.00">
        <request index="0" response="0" foes="0" cont="0"/>
    </junction>

    <junction id=":B0_10_0" type="internal" x="298.95" y="100.43" incLanes=":B0_1_0 in_S_B0_1" intLanes=":B0_3_0 :B0_4_0 :B0_7_0 :B0_7_1 :B0_9_0 :B0_c0_0 :B0_c1_0"/>
    <junction id=":B0_11_0" type="internal" x="299.20" y="100.80" incLanes=":B0_2_0 A0B0_2 in_S_B0_1" intLanes=":B0_4_0 :B0_9_0 :B0_c0_0 :B0_c0_0"/>
    <junction id=":B0_12_0" type="internal" x="303.20" y="93.92" incLanes=":B0_3_0" intLanes=":B0_1_0 :B0_7_0 :B0_7_1 :B0_c1_0 :B0_c2_0"/>
    <junction id=":B0_13_0" type="internal" x="300.80" y="90.80" incLanes=":B0_5_0 A0B0_1 in_N_B0_1" intLanes=":B0_0_0 :B0_6_0 :B0_c2_0 :B0_c2_0"/>
    <junction id=":B0_14_0" type="internal" x="297.12" y="93.60" incLanes=":B0_6_0" intLanes=":B0_0_0 :B0_5_0 :B0_c2_0 :B0_c3_0"/>
    <junction id=":C0_10_0" type="internal" x="598.95" y="100.43" incLanes=":C0_1_0 in_S_C0_1" intLanes=":C0_3_0 :C0_4_0 :C0_7_0 :C0_7_1 :C0_9_0 :C0_c0_0 :C0_c1_0"/>
    <junction id=":C0_11_0" type="internal" x="599.20" y="100.80" incLanes=":C0_2_0 B0C0_2 in_S_C0_1" intLanes=":C0_4_0 :C0_9_0 :C0_c0_0 :C0_c0_0"/>
    <junction id=":C0_12_0" type="internal" x="603.20" y="93.92" incLanes=":C0_3_0" intLanes=":C0_1_0 :C0_7_0 :C0_7_1 :C0_c1_0 :C0_c2_0"/>
    <junction id=":C0_13_0" type="internal" x="600.80" y="90.80" incLanes=":C0_5_0 B0C0_1 in_N_C0_1" intLanes=":C0_0_0 :C0_6_0 :C0_c2_0 :C0_c2_0"/>
    <junction id=":C0_14_0" type="internal" x="597.12" y="93.60" incLanes=":C0_6_0" intLanes=":C0_0_0 :C0_5_0 :C0_c2_0 :C0_c3_0"/>

    <connection from="A0B0" to="out_S_B0" fromLane="1" toLane="1" via=":B0_6_0" tl="B0" linkIndex="6" dir="r" state="o"/>
    <connection from="A0B0" to="B0C0" fromLane="1" toLane="1" via=":B0_7_0" tl="B0" linkIndex="7" dir="s" state="o"/>
    <connection from="A0B0" to="B0C0" fromLane="2" toLane="2" via=":B0_7_1" tl="B0" linkIndex="8" dir="s" state="o"/>
    <connection from="A0B0" to="out_N_B0" fromLane="2" toLane="1" via=":B0_9_0" tl="B0" linkIndex="9" dir="l" state="o"/>
    <connection from="B0C0" to="out_S_C0" fromLane="1" toLane="1" via=":C0_6_0" tl="C0" linkIndex="6" dir="r" state="o"/>
    <connection from="B0C0" to="C0D0" fromLane="1" toLane="1" via=":C0_7_0" tl="C0" linkIndex="7" dir="s" state="o"/>
    <connection from="B0C0" to="C0D0" fromLane="2" toLane="2" via=":C0_7_1" tl="C0" linkIndex="8" dir="s" state="o"/>
    <connection from="B0C0" to="out_N_C0" fromLane="2" toLane="1" via=":C0_9_0" tl="C0" linkIndex="9" dir="l" state="o"/>
    <connection from="in_N_B0" to="out_S_B0" fromLane="1" toLane="1" via=":B0_0_0" tl="B0" linkIndex="0" dir="s" state="o"/>
    <connection from="in_N_B0" to="B0C0" fromLane="1" toLane="2" via=":B0_1_0" tl="B0" linkIndex="1" dir="l" state="o"/>
    <connection from="in_N_B0" to="out_N_B0" fromLane="1" toLane="1" via=":B0_2_0" tl="B0" linkIndex="2" dir="t" state="o"/>
    <connection from="in_N_C0" to="out_S_C0" fromLane="1" toLane="1" via=":C0_0_0" tl="C0" linkIndex="0" dir="s" state="o"/>
    <connection from="in_N_C0" to="C0D0" fromLane="1" toLane="2" via=":C0_1_0" tl="C0" linkIndex="1" dir="l" state="o"/>
    <connection from="in_N_C0" to="out_N_C0" fromLane="1" toLane="1" via=":C0_2_0" tl="C0" linkIndex="2" dir="t" state="o"/>
    <connection from="in_S_B0" to="B0C0" fromLane="1" toLane="1" via=":B0_3_0" tl="B0" linkIndex="3" dir="r" state="o"/>
    <connection from="in_S_B0" to="out_N_B0" fromLane="1" toLane="1" via=":B0_4_0" tl="B0" linkIndex="4" dir="s" state="o"/>
    <connection from="in_S_B0" to="out_S_B0" fromLane="1" toLane="1" via=":B0_5_0" tl="B0" linkIndex="5" dir="t" state="o"/>
    <connection from="in_S_C0" to="C0D0" fromLane="1" toLane="1" via=":C0_3_0" tl="C0" linkIndex="3" dir="r" state="o"/>
    <connection from="in_S_C0" to="out_N_C0" fromLane="1" toLane="1" via=":C0_4_0" tl="C0" linkIndex="4" dir="s" state="o"/>
    <connection from="in_S_C0" to="out_S_C0" fromLane="1" toLane="1" via=":C0_5_0" tl="C0" linkIndex="5" dir="t" state="o"/>
    <connection from="out_N_B0" to="in_N_B0" fromLane="1" toLane="1" via=":N_B0_0_0" dir="t" state="M"/>
    <connection from="out_N_C0" to="in_N_C0" fromLane="1" toLane="1" via=":N_C0_0_0" dir="t" state="M"/>
    <connection from="out_S_B0" to="in_S_B0" fromLane="1" toLane="1" via=":S_B0_0_0" dir="t" state="M"/>
    <connection from="out_S_C0" to="in_S_C0" fromLane="1" toLane="1" via=":S_C0_0_0" dir="t" state="M"/>

    <connection from=":B0_0" to="out_S_B0" fromLane="0" toLane="1" dir="s" state="M"/>
    <connection from=":B0_1" to="B0C0" fromLane="0" toLane="2" via=":B0_10_0" dir="l" state="m"/>
    <connection from=":B0_10" to="B0C0" fromLane="0" toLane="2" dir="l" state="m"/>
    <connection from=":B0_2" to="out_N_B0" fromLane="0" toLane="1" via=":B0_11_0" dir="t" state="m"/>
    <connection from=":B0_11" to="out_N_B0" fromLane="0" toLane="1" dir="t" state="m"/>
    <connection from=":B0_3" to="B0C0" fromLane="0" toLane="1" via=":B0_12_0" dir="r" state="m"/>
    <connection from=":B0_12" to="B0C0" fromLane="0" toLane="1" dir="r" state="m"/>
    <connection from=":B0_4" to="out_N_B0" fromLane="0" toLane="1" dir="s" state="M"/>
    <connection from=":B0_5" to="out_S_B0" fromLane="0" toLane="1" via=":B0_13_0" dir="t" state="m"/>
    <connection from=":B0_13" to="out_S_B0" fromLane="0" toLane="1" dir="t" state="m"/>
    <connection from=":B0_6" to="out_S_B0" fromLane="0" toLane="1" via=":B0_14_0" dir="r" state="m"/>
    <connection from=":B0_14" to="out_S_B0" fromLane="0" toLane="1" dir="r" state="m"/>
    <connection from=":B0_7" to="B0C0" fromLane="0" toLane="1" dir="s" state="M"/>
    <connection from=":B0_7" to="B0C0" fromLane="1" toLane="2" dir="s" state="M"/>
    <connection from=":B0_9" to="out_N_B0" fromLane="0" toLane="1" dir="l" state="M"/>
    <connection from=":C0_0" to="out_S_C0" fromLane="0" toLane="1" dir="s" state="M"/>
    <connection from=":C0_1" to="C0D0" fromLane="0" toLane="2" via=":C0_10_0" dir="l" state="m"/>
    <connection from=":C0_10" to="C0D0" fromLane="0" toLane="2" dir="l" state="m"/>
    <connection from=":C0_2" to="out_N_C0" fromLane="0" toLane="1" via=":C0_11_0" dir="t" state="m"/>