<nodes>
    <node id="A0" x="0" y="0" type="priority"/>
    <node id="B0" x="300" y="0" type="traffic_light"/>
    <node id="C0" x="600" y="0" type="traffic_light"/>
    <node id="D0" x="900" y="0" type="priority"/>

    <node id="N_B0" x="300" y="100" type="priority"/>
    <node id="S_B0" x="300" y="-100" type="priority"/>

    <node id="N_C0" x="600" y="100" type="priority"/>
    <node id="S_C0" x="600" y="-100" type="priority"/>
</nodes>