<routes>
    <vType id="voiture_walid" vClass="passenger" length="5.0" maxSpeed="13.89" sigma="0.5"/>

    <route id="route_directe" edges="A0B0 B0C0 C0D0"/>

    <flow id="flux_boulevard" type="voiture_walid" route="route_directe" begin="0" end="3600" period="3"/>
</routes>
