<edges>
    <edge id="A0B0" from="A0" to="B0" numLanes="2" speed="13.89"/>
    <edge id="B0C0" from="B0" to="C0" numLanes="2" speed="13.89"/>
    <edge id="C0D0" from="C0" to="D0" numLanes="2" speed="13.89"/>

    <edge id="in_N_B0" from="N_B0" to="B0" numLanes="1" speed="13.89"/>
    <edge id="in_S_B0" from="S_B0" to="B0" numLanes="1" speed="13.89"/>
    <edge id="out_N_B0" from="B0" to="N_B0" numLanes="1" speed="13.89"/>
    <edge id="out_S_B0" from="B0" to="S_B0" numLanes="1" speed="13.89"/>

    <edge id="in_N_C0" from="N_C0" to="C0" numLanes="1" speed="13.89"/>
    <edge id="in_S_C0" from="S_C0" to="C0" numLanes="1" speed="13.89"/>
    <edge id="out_N_C0" from="C0" to="N_C0" numLanes="1" speed="13.89"/>
    <edge id="out_S_C0" from="C0" to="S_C0" numLanes="1" speed="13.89"/>
</edges>