<?xml version="1.0" encoding="UTF-8"?>

<!-- generated on 2026-04-09T00:48:48.567664+00:00 by Eclipse SUMO netedit 1.26.0
<neteditConfiguration xmlns:xsi="http://www.w3.org/2001/XMLSchema-instance" xsi:noNamespaceSchemaLocation="http://sumo.dlr.de/xsd/neteditConfiguration.xsd">

    <input>
        <sumo-net-file value="C:\Users\tahae\Desktop\Smart-traffic-management\envs\1x1_minimal\env.net.xml"/>
    </input>

    <output>
        <output-file value="C:\Users\tahae\Desktop\Smart-traffic-management\envs\1x1_minimal\env.net.xml"/>
    </output>

    <processing>
        <offset.disable-normalization value="true"/>
    </processing>

    <junctions>
        <no-turnarounds value="true"/>
    </junctions>

    <netedit>
        <new-network value="false"/>
    </netedit>

</neteditConfiguration>
-->

<net version="1.20" junctionCornerDetail="5" limitTurnSpeed="5.50" xmlns:xsi="http://www.w3.org/2001/XMLSchema-instance" xsi:noNamespaceSchemaLocation="http://sumo.dlr.de/xsd/net_file.xsd">

    <location netOffset="0.00,0.00" convBoundary="-76.59,-83.81,279.62,111.93" origBoundary="10000000000.00,10000000000.00,-10000000000.00,-10000000000.00" projParameter="!"/>

    <edge id=":TL_main_0" function="internal">
        <lane id=":TL_main_0_0" index="0" speed="6.52" length="9.02" shape="80.68,-1.87 83.13,-2.22 84.88,-3.26 85.95,-5.00 86.32,-7.44"/>
    </edge>
    <edge id=":TL_main_1" function="internal">
        <lane id=":TL_main_1_0" index="0" speed="13.89" length="11.15" shape="80.68,-1.87 91.84,-1.82"/>
    </edge>
    <edge id=":TL_main_2" function="internal">
        <lane id=":TL_main_2_0" index="0" speed="13.89" length="11.15" shape="86.24,3.71 86.32,-7.44"/>
    </edge>
    <edge id=":TL_main_3" function="internal">
        <lane id=":TL_main_3_0" index="0" speed="6.47" length="8.98" shape="86.24,3.71 86.60,1.27 87.65,-0.47 89.39,-1.49 91.84,-1.82"/>
    </edge>

    <edge id="edge_E" from="J10" to="TL_main" priority="-1">
        <lane id="edge_E_0" index="0" speed="13.89" length="157.27" shape="-76.59,-2.13 80.68,-1.87"/>
    </edge>
    <edge id="edge_N" from="J7" to="TL_main" priority="-1">
        <lane id="edge_N_0" index="0" speed="13.89" length="108.22" shape="85.99,111.93 86.24,3.71"/>
    </edge>
    <edge id="out_E" from="TL_main" to="J11" priority="-1">
        <lane id="out_E_0" index="0" speed="13.89" length="187.81" shape="91.84,-1.82 279.64,0.26"/>
    </edge>
    <edge id="out_S" from="TL_main" to="J9" priority="-1">
        <lane id="out_S_0" index="0" speed="13.89" length="76.39" shape="86.32,-7.44 87.05,-83.83"/>
    </edge>

    <tlLogic id="TL_main" type="static" programID="0" offset="0">
        <phase duration="42" state="GGrr"/>
        <phase duration="3"  state="yyrr"/>
        <phase duration="42" state="rrGG"/>
        <phase duration="3"  state="rryy"/>
    </tlLogic>

    <junction id="J10" type="dead_end" x="-76.59" y="-0.53" incLanes="" intLanes="" shape="-76.59,-0.53 -76.58,-3.73"/>
    <junction id="J11" type="dead_end" x="279.62" y="1.86" incLanes="out_E_0" intLanes="" shape="279.66,-1.34 279.62,1.86"/>
    <junction id="J7" type="dead_end" x="87.59" y="111.93" incLanes="" intLanes="" shape="87.59,111.93 84.39,111.92"/>
    <junction id="J9" type="dead_end" x="88.65" y="-83.81" incLanes="out_S_0" intLanes="" shape="85.45,-83.84 88.65,-83.81"/>
    <junction id="TL_main" type="traffic_light" x="87.85" y="-0.26" incLanes="edge_E_0 edge_N_0" intLanes=":TL_main_0_0 :TL_main_1_0 :TL_main_2_0 :TL_main_3_0" shape="91.82,-0.22 91.85,-3.42 89.65,-3.88 88.88,-4.44 88.34,-5.22 88.02,-6.21 87.92,-7.43 84.72,-7.46 84.25,-5.24 83.69,-4.47 82.91,-3.91 81.91,-3.58 80.69,-3.47 80.68,-0.27 82.89,0.17 83.66,0.73 84.20,1.50 84.53,2.49 84.64,3.70 87.84,3.71 88.29,1.51 88.84,0.74 89.61,0.20 90.61,-0.12">
        <request index="0" response="0000" foes="0100" cont="0"/>
        <request index="1" response="0000" foes="1100" cont="0"/>
        <request index="2" response="0011" foes="0011" cont="0"/>
        <request index="3" response="0010" foes="0010" cont="0"/>
    </junction>

    <connection from="edge_E" to="out_S" fromLane="0" toLane="0" via=":TL_main_0_0" tl="TL_main" linkIndex="0" dir="r" state="O"/>
    <connection from="edge_E" to="out_E" fromLane="0" toLane="0" via=":TL_main_1_0" tl="TL_main" linkIndex="1" dir="s" state="O"/>
    <connection from="edge_N" to="out_S" fromLane="0" toLane="0" via=":TL_main_2_0" tl="TL_main" linkIndex="2" dir="s" state="o"/>
    <connection from="edge_N" to="out_E" fromLane="0" toLane="0" via=":TL_main_3_0" tl="TL_main" linkIndex="3" dir="l" state="o"/>

    <connection from=":TL_main_0" to="out_S" fromLane="0" toLane="0" dir="r" state="M"/>
    <connection from=":TL_main_1" to="out_E" fromLane="0" toLane="0" dir="s" state="M"/>
    <connection from=":TL_main_2" to="out_S" fromLane="0" toLane="0" dir="s" state="M"/>
    <connection from=":TL_main_3" to="out_E" fromLane="0" toLane="0" dir="l" state="M"/>

</net>
