<routes>
    <vType id="car" accel="2.6" decel="4.5" sigma="0.5" length="5" maxSpeed="70"/>
    <route id="r_n" edges="edge_N"/>
    <route id="r_e" edges="edge_E"/>
    <flow id="f_n" type="car" route="r_n" begin="0" end="3600" period="12"/>
    <flow id="f_e" type="car" route="r_e" begin="0" end="3600" period="12"/>
</routes>