<configuration>
    <input>
        <net-file value="env.net.xml"/>
        <route-files value="dynamic.rou.xml"/>
    </input>
    <time>
        <begin value="0"/>
    </time>
</configuration>
