<?xml version="1.0" encoding="UTF-8"?>

<!-- generated on 2026-04-13T18:53:16.605800+00:00 by Eclipse SUMO netedit 1.26.0
<neteditConfiguration xmlns:xsi="http://www.w3.org/2001/XMLSchema-instance" xsi:noNamespaceSchemaLocation="http://sumo.dlr.de/xsd/neteditConfiguration.xsd">

    <input>
        <sumo-net-file value="C:\Users\amwal\Smart-traffic-management\envs\4x4_intersections\env.net.net.xml"/>
    </input>

    <output>
        <output-file value="C:\Users\amwal\Smart-traffic-management\envs\4x4_intersections\env.net.net.xml"/>
    </output>

    <processing>
        <offset.disable-normalization value="true"/>
    </processing>

    <junctions>
        <no-turnarounds value="true"/>
    </junctions>

    <netedit>
        <new-network value="false"/>
    </netedit>

</neteditConfiguration>
-->

<net version="1.20" junctionCornerDetail="5" limitTurnSpeed="5.50" xmlns:xsi="http://www.w3.org/2001/XMLSchema-instance" xsi:noNamespaceSchemaLocation="http://sumo.dlr.de/xsd/net_file.xsd">

    <location netOffset="0.00,0.00" convBoundary="-57.60,-20.60,54.10,46.90" origBoundary="10000000000.00,10000000000.00,-10000000000.00,-10000000000.00" projParameter="!"/>

    <edge id=":J4_0" function="internal">
        <lane id=":J4_0_0" index="0" speed="6.47" length="9.03" shape="-11.84,20.53 -12.21,18.08 -13.27,16.34 -15.04,15.33 -17.50,15.03"/>
    </edge>
    <edge id=":J4_1" function="internal">
        <lane id=":J4_1_0" index="0" speed="13.89" length="21.01" shape="-11.84,20.53 -11.80,-0.50"/>
        <lane id=":J4_1_1" index="1" speed="13.89" length="21.01" shape="-8.64,20.51 -8.60,-0.47"/>
    </edge>
    <edge id=":J4_3" function="internal">
        <lane id=":J4_3_0" index="0" speed="9.26" length="5.20" shape="-8.64,20.51 -7.94,15.36"/>
    </edge>
    <edge id=":J4_16" function="internal">
        <lane id=":J4_16_0" index="0" speed="9.26" length="14.26" shape="-7.94,15.36 -7.92,15.21 -5.68,11.43 -1.92,9.17 3.36,8.42"/>
    </edge>
    <edge id=":J4_4" function="internal">
        <lane id=":J4_4_0" index="0" speed="6.51" length="9.09" shape="3.34,14.82 0.89,15.17 -0.86,16.23 -1.91,18.00 -2.24,20.48"/>
    </edge>
    <edge id=":J4_5" function="internal">
        <lane id=":J4_5_0" index="0" speed="13.89" length="20.88" shape="3.34,14.82 -17.50,15.03"/>
        <lane id=":J4_5_1" index="1" speed="13.89" length="20.88" shape="3.35,11.62 -17.57,11.83"/>
    </edge>
    <edge id=":J4_7" function="internal">
        <lane id=":J4_7_0" index="0" speed="9.24" length="4.64" shape="3.35,11.62 -1.24,10.95"/>
    </edge>
    <edge id=":J4_17" function="internal">
        <lane id=":J4_17_0" index="0" speed="9.24" length="14.78" shape="-1.24,10.95 -1.92,10.85 -5.67,8.59 -7.90,4.81 -8.60,-0.47"/>
    </edge>
    <edge id=":J4_8" function="internal">
        <lane id=":J4_8_0" index="0" speed="6.49" length="9.03" shape="-2.20,-0.40 -1.87,2.05 -0.84,3.81 0.91,4.86 3.36,5.22"/>
    </edge>
    <edge id=":J4_9" function="internal">
        <lane id=":J4_9_0" index="0" speed="13.89" length="20.91" shape="-2.20,-0.40 -2.24,20.48"/>
        <lane id=":J4_9_1" index="1" speed="13.89" length="20.91" shape="-5.40,-0.44 -5.44,20.50"/>
    </edge>
    <edge id=":J4_11" function="internal">
        <lane id=":J4_11_0" index="0" speed="9.42" length="4.77" shape="-5.40,-0.44 -6.12,4.28"/>
    </edge>
    <edge id=":J4_18" function="internal">
        <lane id=":J4_18_0" index="0" speed="9.42" length="14.80" shape="-6.12,4.28 -6.20,4.83 -8.50,8.63 -12.29,10.96 -17.57,11.83"/>
    </edge>
    <edge id=":J4_12" function="internal">
        <lane id=":J4_12_0" index="0" speed="6.72" length="9.48" shape="-17.71,5.43 -15.14,5.01 -13.30,3.88 -12.19,2.05 -11.80,-0.50"/>
    </edge>
    <edge id=":J4_13" function="internal">
        <lane id=":J4_13_0" index="0" speed="13.89" length="21.03" shape="-17.71,5.43 3.36,5.22"/>
        <lane id=":J4_13_1" index="1" speed="13.89" length="21.03" shape="-17.64,8.63 3.36,8.42"/>
    </edge>
    <edge id=":J4_15" function="internal">
        <lane id=":J4_15_0" index="0" speed="9.23" length="5.23" shape="-17.64,8.63 -12.44,9.26"/>
    </edge>
    <edge id=":J4_19" function="internal">
        <lane id=":J4_19_0" index="0" speed="9.23" length="14.24" shape="-12.44,9.26 -12.33,9.27 -8.52,11.46 -6.23,15.21 -5.44,20.50"/>
    </edge>

    <edge id="in_N" from="J6" to="J4" priority="-1">
        <lane id="in_N_0" index="0" speed="13.89" length="26.39" shape="-11.70,46.93 -11.84,20.53"/>
        <lane id="in_N_1" index="1" speed="13.89" length="26.39" shape="-8.50,46.91 -8.64,20.51"/>
    </edge>
    <edge id="in_S" from="J7" to="J4" priority="-1">
        <lane id="in_S_0" index="0" speed="13.89" length="20.15" shape="-2.00,-20.55 -2.20,-0.40"/>
        <lane id="in_S_1" index="1" speed="13.89" length="20.15" shape="-5.20,-20.58 -5.40,-0.44"/>
    </edge>
    <edge id="in_W" from="J3" to="J4" priority="-1">
        <lane id="in_W_0" index="0" speed="13.89" length="40.01" shape="-57.70,6.30 -17.71,5.43"/>
        <lane id="in_W_1" index="1" speed="13.89" length="40.01" shape="-57.63,9.50 -17.64,8.63"/>
    </edge>
    <edge id="int_E" from="J5" to="J4" priority="-1">
        <lane id="int_E_0" index="0" speed="13.89" length="50.75" shape="54.09,14.90 3.34,14.82"/>
        <lane id="int_E_1" index="1" speed="13.89" length="50.75" shape="54.10,11.70 3.35,11.62"/>
    </edge>
    <edge id="out_E" from="J4" to="J5" priority="-1">
        <lane id="out_E_0" index="0" speed="13.89" length="50.75" shape="3.36,5.22 54.11,5.30"/>
        <lane id="out_E_1" index="1" speed="13.89" length="50.75" shape="3.36,8.42 54.10,8.50"/>
    </edge>
    <edge id="out_N" from="J4" to="J6" priority="-1">
        <lane id="out_N_0" index="0" speed="13.89" length="26.39" shape="-2.24,20.48 -2.10,46.87"/>
        <lane id="out_N_1" index="1" speed="13.89" length="26.39" shape="-5.44,20.50 -5.30,46.89"/>
    </edge>
    <edge id="out_S" from="J4" to="J7" priority="-1">
        <lane id="out_S_0" index="0" speed="13.89" length="20.15" shape="-11.80,-0.50 -11.60,-20.65"/>
        <lane id="out_S_1" index="1" speed="13.89" length="20.15" shape="-8.60,-0.47 -8.40,-20.62"/>
    </edge>
    <edge id="out_W" from="J4" to="J3" priority="-1">
        <lane id="out_W_0" index="0" speed="13.89" length="40.01" shape="-17.50,15.03 -57.50,15.90"/>
        <lane id="out_W_1" index="1" speed="13.89" length="40.01" shape="-17.57,11.83 -57.57,12.70"/>
    </edge>

    <tlLogic id="J4" type="static" programID="0" offset="0">
        <phase duration="42" state="GGGgrrrrGGGgrrrr"/>
        <phase duration="3"  state="yyyyrrrryyyyrrrr"/>
        <phase duration="42" state="rrrrGGGgrrrrGGGg"/>
        <phase duration="3"  state="rrrryyyyrrrryyyy"/>
    </tlLogic>

    <junction id="J3" type="dead_end" x="-57.60" y="11.10" incLanes="out_W_0 out_W_1" intLanes="" shape="-57.60,11.10 -57.46,17.50 -57.60,11.10"/>
    <junction id="J4" type="traffic_light" x="-7.10" y="10.00" incLanes="in_N_0 in_N_1 int_E_0 int_E_1 in_S_0 in_S_1 in_W_0 in_W_1" intLanes=":J4_0_0 :J4_1_0 :J4_1_1 :J4_16_0 :J4_4_0 :J4_5_0 :J4_5_1 :J4_17_0 :J4_8_0 :J4_9_0 :J4_9_1 :J4_18_0 :J4_12_0 :J4_13_0 :J4_13_1 :J4_19_0" shape="-13.44,20.54 -0.64,20.47 -0.21,18.22 0.34,17.43 1.12,16.86 2.12,16.53 3.34,16.42 3.36,3.62 1.15,3.17 0.37,2.61 -0.18,1.83 -0.50,0.83 -0.60,-0.39 -13.40,-0.51 -13.90,1.86 -14.50,2.70 -15.35,3.31 -16.43,3.68 -17.74,3.83 -17.46,16.63 -15.24,17.02 -14.46,17.56 -13.90,18.33 -13.56,19.32">
        <request index="0"  response="0000000000000000" foes="0000000001100000" cont="0"/>
        <request index="1"  response="1000000000000000" foes="1111100011100000" cont="0"/>
        <request index="2"  response="1000000010000000" foes="1111100011100000" cont="0"/>
        <request index="3"  response="1000011010000000" foes="1110011011100000" cont="1"/>
        <request index="4"  response="0000011000000000" foes="0000011000000000" cont="0"/>
        <request index="5"  response="0000111000001111" foes="1000111000001111" cont="0"/>
        <request index="6"  response="0000111000001111" foes="1000111000001111" cont="0"/>
        <request index="7"  response="0110111000001110" foes="0110111000001110" cont="1"/>
        <request index="8"  response="0000000000000000" foes="0110000000000000" cont="0"/>
        <request index="9"  response="0000000010000000" foes="1110000011111000" cont="0"/>
        <request index="10" response="1000000010000000" foes="1110000011111000" cont="0"/>
        <request index="11" response="1000000010000110" foes="1110000011100110" cont="1"/>
        <request index="12" response="0000000000000110" foes="0000000000000110" cont="0"/>
        <request index="13" response="0000111100001110" foes="0000111110001110" cont="0"/>
        <request index="14" response="0000111100001110" foes="0000111110001110" cont="0"/>
        <request index="15" response="0000111001101110" foes="0000111001101110" cont="1"/>
    </junction>
    <junction id="J5" type="dead_end" x="54.10" y="10.10" incLanes="out_E_0 out_E_1" intLanes="" shape="54.10,10.10 54.11,3.70 54.10,10.10"/>
    <junction id="J6" type="dead_end" x="-6.90" y="46.90" incLanes="out_N_0 out_N_1" intLanes="" shape="-6.90,46.90 -0.50,46.87 -6.90,46.90"/>
    <junction id="J7" type="dead_end" x="-6.80" y="-20.60" incLanes="out_S_0 out_S_1" intLanes="" shape="-6.80,-20.60 -13.20,-20.66 -6.80,-20.60"/>

    <junction id=":J4_16_0" type="internal" x="-7.94" y="15.36" incLanes=":J4_3_0 in_S_0 in_S_1" intLanes=":J4_5_0 :J4_5_1 :J4_7_0 :J4_8_0 :J4_9_0 :J4_9_1 :J4_13_0 :J4_13_1 :J4_15_0"/>
    <junction id=":J4_17_0" type="internal" x="-1.24" y="10.95" incLanes=":J4_7_0 in_W_0 in_W_1" intLanes=":J4_1_0 :J4_1_1 :J4_3_0 :J4_9_0 :J4_9_1 :J4_11_0 :J4_12_0 :J4_13_0 :J4_13_1"/>
    <junction id=":J4_18_0" type="internal" x="-6.12" y="4.28" incLanes=":J4_11_0 in_N_0 in_N_1" intLanes=":J4_0_0 :J4_1_0 :J4_1_1 :J4_5_0 :J4_5_1 :J4_7_0 :J4_13_0 :J4_13_1 :J4_15_0"/>
    <junction id=":J4_19_0" type="internal" x="-12.44" y="9.26" incLanes=":J4_15_0 int_E_0 int_E_1" intLanes=":J4_1_0 :J4_1_1 :J4_3_0 :J4_4_0 :J4_5_0 :J4_5_1 :J4_9_0 :J4_9_1 :J4_11_0"/>

    <connection from="in_N" to="out_W" fromLane="0" toLane="0" via=":J4_0_0" tl="J4" linkIndex="0" dir="r" state="O"/>
    <connection from="in_N" to="out_S" fromLane="0" toLane="0" via=":J4_1_0" tl="J4" linkIndex="1" dir="s" state="O"/>
    <connection from="in_N" to="out_S" fromLane="1" toLane="1" via=":J4_1_1" tl="J4" linkIndex="2" dir="s" state="O"/>
    <connection from="in_N" to="out_E" fromLane="1" toLane="1" via=":J4_3_0" tl="J4" linkIndex="3" dir="l" state="o"/>
    <connection from="in_S" to="out_E" fromLane="0" toLane="0" via=":J4_8_0" tl="J4" linkIndex="8" dir="r" state="O"/>
    <connection from="in_S" to="out_N" fromLane="0" toLane="0" via=":J4_9_0" tl="J4" linkIndex="9" dir="s" state="O"/>
    <connection from="in_S" to="out_N" fromLane="1" toLane="1" via=":J4_9_1" tl="J4" linkIndex="10" dir="s" state="O"/>
    <connection from="in_S" to="out_W" fromLane="1" toLane="1" via=":J4_11_0" tl="J4" linkIndex="11" dir="l" state="o"/>
    <connection from="in_W" to="out_S" fromLane="0" toLane="0" via=":J4_12_0" tl="J4" linkIndex="12" dir="r" state="o"/>
    <connection from="in_W" to="out_E" fromLane="0" toLane="0" via=":J4_13_0" tl="J4" linkIndex="13" dir="s" state="o"/>
    <connection from="in_W" to="out_E" fromLane="1" toLane="1" via=":J4_13_1" tl="J4" linkIndex="14" dir="s" state="o"/>
    <connection from="in_W" to="out_N" fromLane="1" toLane="1" via=":J4_15_0" tl="J4" linkIndex="15" dir="l" state="o"/>
    <connection from="int_E" to="out_N" fromLane="0" toLane="0" via=":J4_4_0" tl="J4" linkIndex="4" dir="r" state="o"/>
    <connection from="int_E" to="out_W" fromLane="0" toLane="0" via=":J4_5_0" tl="J4" linkIndex="5" dir="s" state="o"/>
    <connection from="int_E" to="out_W" fromLane="1" toLane="1" via=":J4_5_1" tl="J4" linkIndex="6" dir="s" state="o"/>
    <connection from="int_E" to="out_S" fromLane="1" toLane="1" via=":J4_7_0" tl="J4" linkIndex="7" dir="l" state="o"/>

    <connection from=":J4_0" to="out_W" fromLane="0" toLane="0" dir="r" state="M"/>
    <connection from=":J4_1" to="out_S" fromLane="0" toLane="0" dir="s" state="M"/>
    <connection from=":J4_1" to="out_S" fromLane="1" toLane="1" dir="s" state="M"/>
    <connection from=":J4_3" to="out_E" fromLane="0" toLane="1" via=":J4_16_0" dir="l" state="m"/>
    <connection from=":J4_16" to="out_E" fromLane="0" toLane="1" dir="l" state="M"/>
    <connection from=":J4_4" to="out_N" fromLane="0" toLane="0" dir="r" state="M"/>
    <connection from=":J4_5" to="out_W" fromLane="0" toLane="0" dir="s" state="M"/>
    <connection from=":J4_5" to="out_W" fromLane="1" toLane="1" dir="s" state="M"/>
    <connection from=":J4_7" to="out_S" fromLane="0" toLane="1" via=":J4_17_0" dir="l" state="m"/>
    <connection from=":J4_17" to="out_S" fromLane="0" toLane="1" dir="l" state="M"/>
    <connection from=":J4_8" to="out_E" fromLane="0" toLane="0" dir="r" state="M"/>
    <connection from=":J4_9" to="out_N" fromLane="0" toLane="0" dir="s" state="M"/>
    <connection from=":J4_9" to="out_N" fromLane="1" toLane="1" dir="s" state="M"/>
    <connection from=":J4_11" to="out_W" fromLane="0" toLane="1" via=":J4_18_0" dir="l" state="m"/>
    <connection from=":J4_18" to="out_W" fromLane="0" toLane="1" dir="l" state="M"/>
    <connection from=":J4_12" to="out_S" fromLane="0" toLane="0" dir="r" state="M"/>
    <connection from=":J4_13" to="out_E" fromLane="0" toLane="0" dir="s" state="M"/>
    <connection from=":J4_13" to="out_E" fromLane="1" toLane="1" dir="s" state="M"/>
    <connection from=":J4_15" to="out_N" fromLane="0" toLane="1" via=":J4_19_0" dir="l" state="m"/>
    <connection from=":J4_19" to="out_N" fromLane="0" toLane="1" dir="l" state="M"/>

</net>
