<?xml version="1.0" encoding="UTF-8"?>

<!-- generated on 2026-06-20T21:16:14.529167+00:00 by Eclipse SUMO polyconvert 1.26.0
<polyconvertConfiguration xmlns:xsi="http://www.w3.org/2001/XMLSchema-instance" xsi:noNamespaceSchemaLocation="http://sumo.dlr.de/xsd/polyconvertConfiguration.xsd">

    <input>
        <net-file value="envs/cologne8/cologne8.net.xml"/>
        <osm-files value="envs/cologne8/cologne.osm.xml"/>
        <type-file value="C:\Program Files (x86)\Eclipse\Sumo\/data/typemap/osmPolyconvert.typ.xml"/>
    </input>

    <output>
        <output-file value="envs/cologne8/cologne8.poly.xml"/>
    </output>

    <report>
        <no-warnings value="true"/>
    </report>

</polyconvertConfiguration>
-->

<additional xmlns:xsi="http://www.w3.org/2001/XMLSchema-instance" xsi:noNamespaceSchemaLocation="http://sumo.dlr.de/xsd/additional_file.xsd">
    <location netOffset="-342498.65,-5630866.92" convBoundary="12483.61,15578.40,14951.80,19987.32" origBoundary="6.166558,50.735925,7.295276,51.840721" projParameter="+proj=utm +zone=32 +ellps=WGS84 +datum=WGS84 +units=m +no_defs"/>

    <poly id="1001562391" type="parking" color="184,184,179" fill="1" layer="-1.00" shape="14540.597921,18379.776621 14540.772786,18377.969157 14482.387739,18372.327295 14482.212586,18374.123643 14540.597921,18379.776621"/>
    <poly id="1001562392" type="parking" color="184,184,179" fill="1" layer="-1.00" shape="14438.479958,18369.957889 14449.742284,18371.026358 14449.928084,18369.107313 14438.665446,18368.027724 14438.479958,18369.957889"/>
    <poly id="1001562393" type="parking" color="184,184,179" fill="1" layer="-1.00" shape="14413.910556,18372.884879 14413.734812,18374.658992 14433.330423,18376.554126 14433.499154,18374.780208 14413.910556,18372.884879"/>
    <poly id="1001562394" type="parking" color="184,184,179" fill="1" layer="-1.00" shape="14376.172648,18366.272789 14398.548095,18368.346845 14400.748680,18364.346902 14378.561207,18362.212000 14376.172648,18366.272789"/>
    <poly id="1001562395" type="building" color="255,230,230" fill="1" layer="-1.00" shape="14393.849680,18382.363741 14402.685294,18383.065246 14403.070382,18378.191932 14394.241779,18377.490232 14393.849680,18382.363741"/>
    <poly id="1001562396" type="building" color="255,230,230" fill="1" layer="-1.00" shape="14407.945420,18387.838103 14408.278867,18384.145719 14402.736686,18383.653576 14402.118834,18390.525129 14408.153909,18391.059279 14408.438323,18387.880111 14407.945420,18387.838103"/>
    <poly id="1001562397" type="building" color="255,230,230" fill="1" layer="-1.00" shape="14234.128611,18225.669371 14241.276161,18239.736836 14247.235463,18239.048891 14240.131586,18225.035847 14234.128611,18225.669371"/>
    <poly id="1001562398" type="building" color="255,230,230" fill="1" layer="-1.00" shape="14240.131586,18225.035847 14232.945838,18210.858167 14226.928807,18211.492087 14234.128611,18225.669371 14240.131586,18225.035847"/>
    <poly id="1001562399" type="building" color="255,230,230" fill="1" layer="-1.00" shape="14239.714941,18270.892252 14242.523517,18273.885668 14253.398366,18263.736906 14251.445706,18259.940875 14239.714941,18270.892252"/>
    <poly id="1001562400" type="building" color="255,230,230" fill="1" layer="-1.00" shape="14220.290050,18234.075327 14222.325077,18236.277849 14226.504289,18232.445600 14224.085213,18229.819740 14222.584833,18231.196565 14222.975903,18231.619707 14220.290050,18234.075327"/>
    <poly id="1001562401" type="parking" color="184,184,179" fill="1" layer="-1.00" shape="14214.273394,18258.065662 14240.548676,18286.291744 14234.768802,18286.607527 14208.740409,18258.419148 14214.273394,18258.065662"/>
    <poly id="1001562402" type="parking" color="184,184,179" fill="1" layer="-1.00" shape="14242.729409,18290.459789 14241.346223,18291.755473 14262.901259,18314.682153 14264.284444,18313.386475 14242.729409,18290.459789"/>
    <poly id="1006124556" type="leisure" color="207,245,201" fill="1" layer="-2.00" shape="14553.195478,18473.944504 14544.523204,18472.537215 14548.692523,18446.984873 14557.364838,18448.392171 14553.195478,18473.944504"/>
    <poly id="1006124556#1" type="sport" color="79,230,125" fill="1" layer="-2.00" shape="14553.195478,18473.944504 14544.523204,18472.537215 14548.692523,18446.984873 14557.364838,18448.392171 14553.195478,18473.944504"/>
    <poly id="1006124557" type="leisure" color="207,245,201" fill="1" layer="-2.00" shape="14630.235356,18506.500999 14626.369116,18505.895590 14609.469742,18503.424570 14554.593327,18495.303824 14554.418067,18496.588313 14547.478164,18495.589389 14547.205078,18497.655496 14546.957919,18499.642996 14553.809899,18500.510819 14553.603536,18501.940823 14629.245165,18513.126863 14630.235356,18506.500999"/>
    <poly id="1006124557#1" type="sport" color="79,230,125" fill="1" layer="-2.00" shape="14630.235356,18506.500999 14626.369116,18505.895590 14609.469742,18503.424570 14554.593327,18495.303824 14554.418067,18496.588313 14547.478164,18495.589389 14547.205078,18497.655496 14546.957919,18499.642996 14553.809899,18500.510819 14553.603536,18501.940823 14629.245165,18513.126863 14630.235356,18506.500999"/>
    <poly id="1006124558" type="building" color="255,230,230" fill="1" layer="-1.00" shape="14579.676821,18431.652365 14579.087752,18434.995716 14582.788656,18435.716933 14583.268444,18432.231944 14579.676821,18431.652365"/>
    <poly id="1006124558#1" type="shop" color="237,199,255" fill="1" layer="-1.00" shape="14579.676821,18431.652365 14579.087752,18434.995716 14582.788656,18435.716933 14583.268444,18432.231944 14579.676821,18431.652365"/>
    <poly id="1007441778" type="parking" color="184,184,179" fill="1" layer="-1.00" shape="14759.459133,18475.862117 14761.386462,18476.209541 14768.372030,18437.605258 14766.444688,18437.257832 14759.459133,18475.862117"/>
    <poly id="1007441779" type="parking" color="184,184,179" fill="1" layer="-1.00" shape="14712.550989,18408.244503 14713.007575,18406.206727 14661.332262,18394.725048 14660.876002,18396.773948 14712.550989,18408.244503"/>
    <poly id="1007441780" type="parking" color="184,184,179" fill="1" layer="-1.00" shape="14720.771413,18410.332184 14730.344474,18412.560599 14730.778203,18410.712620 14721.205139,18408.484205 14720.771413,18410.332184"/>
    <poly id="1007441781" type="building" color="255,230,230" fill="1" layer="-1.00" shape="14484.553071,18435.682365 14484.494995,18441.715008 14495.671479,18443.242164 14495.982432,18436.445873 14484.553071,18435.682365"/>
    <poly id="1007441782" type="building" color="255,230,230" fill="1" layer="-1.00" shape="14528.912989,18423.418279 14528.003294,18432.445454 14536.350813,18433.283068 14537.260522,18424.255894 14528.912989,18423.418279"/>
    <poly id="1013390574" type="tourism" color="207,245,201" fill="1" layer="-2.00" shape="13567.391127,17610.883480 13564.980454,17609.592962 13565.794076,17602.215094 13568.178782,17602.571629 13567.391127,17610.883480"/>
    <poly id="1013392530" type="leisure" color="207,245,201" fill="1" layer="-2.00" shape="13613.678667,17570.450281 13607.295103,17645.882638 13604.078559,17649.722003 13572.870135,17649.499168 13568.340093,17622.017925 13573.279527,17567.189175 13613.678667,17570.450281"/>
    <poly id="1013394033" type="building" color="255,230,230" fill="1" layer="-1.00" shape="14115.737301,17690.927049 14149.494694,17672.344017 14129.951691,17636.175999 14097.364218,17656.418103 14115.737301,17690.927049"/>
    <poly id="1013394033#1" type="leisure" color="207,245,201" fill="1" layer="-2.00" shape="14115.737301,17690.927049 14149.494694,17672.344017 14129.951691,17636.175999 14097.364218,17656.418103 14115.737301,17690.927049"/>
    <poly id="1013395170" type="parking" color="184,184,179" fill="1" layer="-1.00" shape="13476.417732,17822.209524 13478.313312,17828.977914 13475.359017,17832.387229 13456.129229,17829.595230 13457.214923,17820.640790 13476.417732,17822.209524"/>
    <poly id="1013396407" type="building" color="255,230,230" fill="1" layer="-1.00" shape="13446.364855,17816.769947 13452.107052,17816.343080 13451.950536,17812.486206 13445.901201,17812.732453 13446.364855,17816.769947"/>
    <poly id="1014174379" type="parking" color="184,184,179" fill="1" layer="-1.00" shape="14398.218961,16955.625221 14398.445866,16957.733147 14420.787763,16955.324174 14420.560867,16953.216248 14398.218961,16955.625221"/>
    <poly id="1014174380" type="parking" color="184,184,179" fill="1" layer="-1.00" shape="14372.948257,16958.337802 14373.164462,16960.312495 14396.058269,16957.788012 14395.842380,16955.824437 14372.948257,16958.337802"/>
    <poly id="1014174381" type="parking" color="184,184,179" fill="1" layer="-1.00" shape="14333.561051,16962.586956 14333.769635,16964.539603 14353.639375,16962.432374 14353.430798,16960.479726 14333.561051,16962.586956"/>
    <poly id="1014174382" type="parking" color="184,184,179" fill="1" layer="-1.00" shape="14310.723095,16964.843116 14310.928049,16966.918264 14331.649213,16964.854167 14331.444267,16962.779018 14310.723095,16964.843116"/>
    <poly id="1014174383" type="parking" color="184,184,179" fill="1" layer="-1.00" shape="14283.369305,16967.947570 14283.581853,16969.788833 14301.857698,16967.725493 14301.651869,16965.872916 14283.369305,16967.947570"/>
    <poly id="1014174384" type="parking" color="184,184,179" fill="1" layer="-1.00" shape="14298.638675,16976.082159 14298.434024,16974.018129 14282.722452,16975.554326 14282.920088,16977.618550 14298.638675,16976.082159"/>
    <poly id="1014174385" type="parking" color="184,184,179" fill="1" layer="-1.00" shape="14332.028904,16972.232235 14331.803201,16970.168787 14312.649681,16972.256294 14312.875391,16974.319742 14332.028904,16972.232235"/>
    <poly id="1014174386" type="parking" color="184,184,179" fill="1" layer="-1.00" shape="14353.888701,16969.925321 14353.671874,16967.928391 14334.673119,16970.022664 14334.896975,16972.019399 14353.888701,16969.925321"/>
    <poly id="1014174387" type="parking" color="184,184,179" fill="1" layer="-1.00" shape="14396.600637,16965.462023 14396.381675,16963.387260 14374.492524,16965.650295 14374.704473,16967.725252 14396.600637,16965.462023"/>
    <poly id="1014174388" type="parking" color="184,184,179" fill="1" layer="-1.00" shape="14421.482925,16960.646093 14399.010977,16962.925129 14399.215281,16964.978043 14421.694241,16962.698813 14421.482925,16960.646093"/>
    <poly id="1014174389" type="parking" color="184,184,179" fill="1" layer="-1.00" shape="14427.334510,16962.108981 14437.220244,16961.056895 14437.001298,16958.982130 14427.108539,16960.034411 14427.334510,16962.108981"/>
    <poly id="1014174390" type="parking" color="184,184,179" fill="1" layer="-1.00" shape="14454.115909,16951.510145 14453.898813,16949.502093 14438.254022,16951.169497 14438.471125,16953.177548 14454.115909,16951.510145"/>
    <poly id="1014174391" type="parking" color="184,184,179" fill="1" layer="-1.00" shape="14455.632020,16959.079364 14455.405139,16956.971436 14439.403198,16958.682087 14439.630087,16960.790014 14455.632020,16959.079364"/>
    <poly id="1014175214" type="parking" color="184,184,179" fill="1" layer="-1.00" shape="14263.737899,16956.317305 14261.282551,16934.620102 14259.356260,16934.840305 14261.818638,16956.537313 14263.737899,16956.317305"/>
    <poly id="1014175215" type="parking" color="184,184,179" fill="1" layer="-1.00" shape="14420.517039,16885.518651 14420.892879,16887.422170 14442.600073,16883.139196 14442.224241,16881.235677 14420.517039,16885.518651"/>
    <poly id="1014175216" type="parking" color="184,184,179" fill="1" layer="-1.00" shape="14403.967598,16882.682317 14404.354461,16884.730185 14420.844832,16881.615020 14420.450954,16879.567345 14403.967598,16882.682317"/>
    <poly id="1014175217" type="parking" color="184,184,179" fill="1" layer="-1.00" shape="14387.971820,16885.895139 14388.340957,16887.809968 14398.560343,16885.858404 14398.198538,16883.954499 14387.971820,16885.895139"/>
    <poly id="1014175218" type="parking" color="184,184,179" fill="1" layer="-1.00" shape="14387.163017,16891.970776 14387.540406,16893.929886 14412.424571,16889.169513 14412.054213,16887.210207 14387.163017,16891.970776"/>
    <poly id="1014175219" type="parking" color="184,184,179" fill="1" layer="-1.00" shape="14372.562179,16888.958280 14372.914820,16890.784545 14382.714133,16888.889071 14382.361495,16887.062805 14372.562179,16888.958280"/>
    <poly id="1014175220" type="parking" color="184,184,179" fill="1" layer="-1.00" shape="14362.314039,16896.986228 14362.698766,16898.956261 14384.636970,16894.644400 14384.244922,16892.663440 14362.314039,16896.986228"/>
    <poly id="1014175221" type="parking" color="184,184,179" fill="1" layer="-1.00" shape="14356.438817,16892.130219 14356.784443,16893.956677 14366.843541,16892.053990 14366.497919,16890.227531 14356.438817,16892.130219"/>
    <poly id="1014175222" type="parking" color="184,184,179" fill="1" layer="-1.00" shape="14341.122334,16895.257643 14341.499125,16897.194513 14351.040465,16895.372875 14350.663677,16893.436005 14341.122334,16895.257643"/>
    <poly id="1014175223" type="parking" color="184,184,179" fill="1" layer="-1.00" shape="14324.287045,16904.447016 14324.686751,16906.450015 14353.269774,16900.774772 14352.870078,16898.771771 14324.287045,16904.447016"/>
    <poly id="1014175224" type="parking" color="184,184,179" fill="1" layer="-1.00" shape="14325.417838,16898.329080 14325.829743,16900.264977 14335.659828,16898.212779 14335.247619,16896.265761 14325.417838,16898.329080"/>
    <poly id="1014175225" type="parking" color="184,184,179" fill="1" layer="-1.00" shape="14309.845846,16901.363518 14310.191180,16903.178855 14320.054568,16901.314870 14319.709237,16899.499532 14309.845846,16901.363518"/>
    <poly id="1014175226" type="parking" color="184,184,179" fill="1" layer="-1.00" shape="14291.936390,16910.838636 14292.328780,16912.830708 14322.145065,16907.032160 14321.759401,16905.028773 14291.936390,16910.838636"/>
    <poly id="1014175227" type="parking" color="184,184,179" fill="1" layer="-1.00" shape="14292.908058,16904.558181 14293.273899,16906.606625 14304.349229,16904.608942 14303.976371,16902.560692 14292.908058,16904.558181"/>
    <poly id="1014175228" type="parking" color="184,184,179" fill="1" layer="-1.00" shape="14280.842187,16907.072893 14281.210749,16908.965477 14287.374809,16907.749001 14287.006557,16905.867535 14280.842187,16907.072893"/>
    <poly id="1014175229" type="parking" color="184,184,179" fill="1" layer="-1.00" shape="14289.185909,16911.493336 14280.907512,16912.990844 14281.256239,16914.928486 14289.534634,16913.430979 14289.185909,16911.493336"/>
    <poly id="1014177304" type="building" color="255,230,230" fill="1" layer="-1.00" shape="13939.951084,17035.732703 13942.280181,17035.089496 13947.126104,17033.731116 13948.694006,17039.340362 13941.518995,17041.341947 13939.951084,17035.732703"/>
    <poly id="1014177305" type="building" color="255,230,230" fill="1" layer="-1.00" shape="13950.855784,17025.059605 13948.332721,17015.159411 13937.890173,17017.919243 13942.280181,17035.089496 13947.126104,17033.731116 13952.867061,17032.214395 13950.855784,17025.059605"/>
    <poly id="1014177306" type="building" color="255,230,230" fill="1" layer="-1.00" shape="13953.669488,17035.051889 13958.466572,17033.706001 13955.652876,17023.713715 13950.855784,17025.059605 13952.867061,17032.214395 13953.669488,17035.051889"/>
    <poly id="1014177307" type="building" color="255,230,230" fill="1" layer="-1.00" shape="13971.212130,17097.290678 13967.385228,17083.698945 13966.068239,17079.028567 13962.912038,17067.832887 13961.657686,17063.394448 13953.669488,17035.051889 13952.867061,17032.214395 13947.126104,17033.731116 13948.694006,17039.340362 13955.001243,17061.542686 13955.189585,17061.492955 13962.982483,17089.128777 13963.463560,17088.993038 13966.198986,17098.698184 13971.212130,17097.290678"/>
    <poly id="1014177308" type="building" color="255,230,230" fill="1" layer="-1.00" shape="13917.496602,17048.762438 13915.301776,17042.591962 13924.602400,17037.170917 13927.082334,17045.514462 13917.496602,17048.762438"/>
    <poly id="1026364904" type="leisure" color="207,245,201" fill="1" layer="-2.00" shape="14240.641732,17101.100291 14249.225224,17100.228523 14251.704976,17124.584492 14243.128546,17125.456063 14240.641732,17101.100291"/>
    <poly id="1032719574" type="amenity" color="237,199,199" fill="1" layer="-1.00" shape="14285.017528,18207.358389 14290.214303,18210.085451 14289.913619,18207.089376 14284.688397,18204.096044 14285.017528,18207.358389"/>
    <poly id="1033582668" type="parking" color="184,184,179" fill="1" layer="-1.00" shape="13753.080872,16992.680370 13743.882582,16991.155375 13743.557762,16993.122820 13752.749027,16994.648009 13753.080872,16992.680370"/>
    <poly id="1033582669" type="parking" color="184,184,179" fill="1" layer="-1.00" shape="13751.524166,16987.482577 13751.830704,16985.615787 13744.715452,16984.455798 13744.408917,16986.322589 13751.524166,16987.482577"/>
    <poly id="1033582670" type="parking" color="184,184,179" fill="1" layer="-1.00" shape="13753.649343,16987.846415 13798.380978,16994.894595 13798.703041,16992.827084 13753.971698,16985.790020 13753.649343,16987.846415"/>
    <poly id="1033582671" type="parking" color="184,184,179" fill="1" layer="-1.00" shape="13754.854437,16993.287646 13754.605226,16994.941423 13797.251524,17001.290825 13797.500748,16999.637050 13754.854437,16993.287646"/>
    <poly id="1033995275" type="parking" color="184,184,179" fill="1" layer="-1.00" shape="14624.280520,17224.082469 14615.308269,17226.900509 14615.916637,17228.831003 14624.888885,17226.012963 14624.280520,17224.082469"/>
    <poly id="1033995276" type="parking" color="184,184,179" fill="1" layer="-1.00" shape="14534.339185,17261.371807 14533.839789,17259.571841 14511.531239,17265.684871 14512.030642,17267.484835 14534.339185,17261.371807"/>
    <poly id="1033995277" type="parking" color="184,184,179" fill="1" layer="-1.00" shape="14534.905336,17249.305255 14535.442908,17251.215441 14570.062300,17241.557941 14569.524741,17239.647752 14534.905336,17249.305255"/>
    <poly id="1033995278" type="parking" color="184,184,179" fill="1" layer="-1.00" shape="14586.748579,17247.106045 14586.210412,17245.173616 14568.052249,17250.192618 14568.590729,17252.136164 14586.748579,17247.106045"/>
    <poly id="1033995279" type="parking" color="184,184,179" fill="1" layer="-1.00" shape="14608.960831,17241.062768 14639.472202,17231.741675 14638.823215,17229.612008 14608.311832,17238.933104 14608.960831,17241.062768"/>
    <poly id="1033995280" type="parking" color="184,184,179" fill="1" layer="-1.00" shape="14630.478951,17222.086524 14631.150196,17224.004156 14652.780245,17216.463824 14652.109007,17214.546189 14630.478951,17222.086524"/>
    <poly id="1033995281" type="parking" color="184,184,179" fill="1" layer="-1.00" shape="14703.526102,17195.357363 14704.202504,17197.208097 14719.895846,17191.467524 14719.219450,17189.616788 14703.526102,17195.357363"/>
    <poly id="1033995282" type="parking" color="184,184,179" fill="1" layer="-1.00" shape="14740.208964,17181.771806 14728.150514,17186.065665 14728.904171,17188.170200 14740.962310,17183.865224 14740.208964,17181.771806"/>
    <poly id="1033995283" type="parking" color="184,184,179" fill="1" layer="-1.00" shape="14747.097334,17179.311887 14747.787457,17181.151120 14768.575884,17173.400820 14767.885767,17171.561584 14747.097334,17179.311887"/>
    <poly id="1033995286" type="parking" color="184,184,179" fill="1" layer="-1.00" shape="14719.690169,17201.843866 14758.294294,17187.604575 14757.557757,17185.610837 14718.953618,17199.850134 14719.690169,17201.843866"/>
    <poly id="1033995287" type="parking" color="184,184,179" fill="1" layer="-1.00" shape="14715.350403,17203.465746 14714.688968,17201.647980 14702.125711,17206.234008 14702.794171,17208.051580 14715.350403,17203.465746"/>
    <poly id="1033995288" type="parking" color="184,184,179" fill="1" layer="-1.00" shape="14657.186723,17225.155089 14687.714184,17213.864306 14686.978236,17211.892816 14656.450457,17223.172483 14657.186723,17225.155089"/>
    <poly id="1033999679" type="parking" color="184,184,179" fill="1" layer="-1.00" shape="14281.648566,18174.214101 14284.688397,18204.096044 14285.017528,18207.358389 14291.412661,18272.432443 14296.735975,18274.911205 14290.214303,18210.085451 14289.913619,18207.089376 14286.860896,18176.740438 14281.648566,18174.214101"/>
    <poly id="1041982822" type="forest" color="140,196,107" fill="1" layer="-4.00" shape="14023.901163,17761.849686 14035.484782,17800.819487 14067.467409,17791.498552 14087.492267,17779.638248 14148.554724,17770.068571 14185.074820,17763.738388 14180.162162,17737.035141 14023.901163,17761.849686"/>
    <poly id="1041982824" type="natural" color="140,196,107" fill="0" layer="-4.00" shape="13720.225234,17906.476003 13766.868603,17908.518748 13815.357640,17905.681368"/>
    <poly id="1044577493" type="parking" color="184,184,179" fill="1" layer="-1.00" shape="14010.803286,17111.849484 14012.823441,17121.863788 14014.871107,17121.462087 14012.857670,17111.436470 14010.803286,17111.849484"/>
    <poly id="1044577494" type="parking" color="184,184,179" fill="1" layer="-1.00" shape="14012.403220,17141.181466 14010.497541,17129.973359 14008.602497,17130.304067 14010.514893,17141.500860 14012.403220,17141.181466"/>
    <poly id="1044577495" type="parking" color="184,184,179" fill="1" layer="-1.00" shape="14015.776315,17161.729300 14013.522022,17145.801710 14011.296370,17146.119325 14013.550362,17162.035796 14015.776315,17161.729300"/>
    <poly id="1044577496" type="parking" color="184,184,179" fill="1" layer="-1.00" shape="14013.766714,17126.488896 14014.688131,17131.593089 14016.555091,17131.263161 14015.633676,17126.158969 14013.766714,17126.488896"/>
    <poly id="1044577497" type="parking" color="184,184,179" fill="1" layer="-1.00" shape="14019.144183,17157.496569 14021.116452,17157.163724 14017.435894,17135.155593 14015.456597,17135.488634 14019.144183,17157.496569"/>
    <poly id="1044577498" type="parking" color="184,184,179" fill="1" layer="-1.00" shape="14023.133923,17184.069492 14025.051552,17183.793800 14021.889731,17161.993838 14019.979114,17162.269337 14023.133923,17184.069492"/>
    <poly id="1044577499" type="parking" color="184,184,179" fill="1" layer="-1.00" shape="14016.814712,17168.265685 14014.540230,17168.595780 14015.454337,17174.957570 14017.728816,17174.627476 14016.814712,17168.265685"/>
    <poly id="1044577500" type="parking" color="184,184,179" fill="1" layer="-1.00" shape="14021.343995,17202.390283 14018.647209,17179.876408 14016.553433,17180.134730 14019.250228,17202.648604 14021.343995,17202.390283"/>
    <poly id="1044577502" type="parking" color="184,184,179" fill="1" layer="-1.00" shape="13976.401973,17000.360696 13972.365826,16987.587059 13970.533991,16988.171956 13974.562812,17000.934668 13976.401973,17000.360696"/>
    <poly id="1044577503" type="parking" color="184,184,179" fill="1" layer="-1.00" shape="13982.059243,17005.456003 13984.141993,17004.797390 13975.970810,16979.230594 13973.888050,16979.889211 13982.059243,17005.456003"/>
    <poly id="1044577504" type="parking" color="184,184,179" fill="1" layer="-1.00" shape="13981.220068,17015.994655 13977.945193,17005.080442 13976.140216,17005.620083 13979.408074,17016.534490 13981.220068,17015.994655"/>
    <poly id="1044577505" type="parking" color="184,184,179" fill="1" layer="-1.00" shape="13987.239442,17022.493109 13989.330132,17021.867660 13986.016164,17010.809870 13983.925470,17011.435320 13987.239442,17022.493109"/>
    <poly id="1044577506" type="parking" color="184,184,179" fill="1" layer="-1.00" shape="13988.717365,17027.392706 13994.118980,17046.081662 13996.168458,17045.490739 13990.766850,17026.801782 13988.717365,17027.392706"/>
    <poly id="1044577507" type="parking" color="184,184,179" fill="1" layer="-1.00" shape="13990.067163,17045.415055 13984.958129,17028.409357 13982.895528,17029.034029 13987.997239,17046.028802 13990.067163,17045.415055"/>
    <poly id="1044577508" type="parking" color="184,184,179" fill="1" layer="-1.00" shape="13996.801309,17068.829602 13991.579261,17050.280323 13989.682714,17050.811372 13994.897747,17069.360844 13996.801309,17068.829602"/>
    <poly id="1044577509" type="parking" color="184,184,179" fill="1" layer="-1.00" shape="14009.792020,17107.560083 14011.810066,17107.103565 14003.902249,17072.015512 14001.883882,17072.460914 14009.792020,17107.560083"/>
    <poly id="1044577510" type="parking" color="184,184,179" fill="1" layer="-1.00" shape="14005.710078,17107.072339 14002.027450,17090.316405 13998.072580,17073.879586 13996.403737,17074.259664 14000.306757,17090.853703 14004.041245,17107.452416 14005.710078,17107.072339"/>
    <poly id="1050731521" type="building" color="255,230,230" fill="1" layer="-1.00" shape="14135.488916,17737.927319 14164.244010,17721.385705 14157.565695,17709.831241 14128.810246,17726.361772 14135.488916,17737.927319"/>
    <poly id="1050731522" type="school" color="237,199,199" fill="1" layer="-2.00" shape="14044.426587,17735.854664 14092.985386,17707.836724 14089.797609,17702.327960 14102.397251,17695.057653 14080.719737,17657.680417 14067.048182,17665.570228 14087.176002,17700.264134 14076.893116,17706.201762 14057.185748,17672.230651 14043.673272,17680.027100 14063.011813,17713.362994 14053.026543,17719.136641 14034.100824,17686.501494 14020.387907,17694.414837 14044.426587,17735.854664"/>
    <poly id="1050731522#1" type="building" color="255,230,230" fill="1" layer="-1.00" shape="14044.426587,17735.854664 14092.985386,17707.836724 14089.797609,17702.327960 14102.397251,17695.057653 14080.719737,17657.680417 14067.048182,17665.570228 14087.176002,17700.264134 14076.893116,17706.201762 14057.185748,17672.230651 14043.673272,17680.027100 14063.011813,17713.362994 14053.026543,17719.136641 14034.100824,17686.501494 14020.387907,17694.414837 14044.426587,17735.854664"/>
    <poly id="1050731523" type="building" color="255,230,230" fill="1" layer="-1.00" shape="14053.479852,17749.691058 14061.347020,17745.066589 14064.155815,17749.829174 14158.017473,17694.685476 14150.690274,17682.281051 14048.960969,17742.038236 14053.479852,17749.691058"/>
    <poly id="1054471461" type="parking" color="184,184,179" fill="1" layer="-1.00" shape="14236.869249,16982.542385 14256.453173,16980.520579 14256.241791,16978.467864 14236.650530,16980.478746 14236.869249,16982.542385"/>
    <poly id="1054471462" type="parking" color="184,184,179" fill="1" layer="-1.00" shape="14268.105936,17036.992283 14269.561629,17050.749949 14271.565419,17050.538731 14270.109731,17036.781065 14268.105936,17036.992283"/>
    <poly id="1054471463" type="parking" color="184,184,179" fill="1" layer="-1.00" shape="14262.414555,16985.696786 14265.336313,17011.553849 14267.395674,17011.318838 14264.480948,16985.461580 14262.414555,16985.696786"/>
    <poly id="1054471464" type="parking" color="184,184,179" fill="1" layer="-1.00" shape="14275.197338,17011.136392 14272.096604,16984.650016 14269.869334,16984.911925 14272.970079,17011.398299 14275.197338,17011.136392"/>
    <poly id="1054471465" type="parking" color="184,184,179" fill="1" layer="-1.00" shape="14279.166937,17049.727565 14276.534404,17022.638484 14274.326983,17022.855333 14276.959528,17049.944412 14279.166937,17049.727565"/>
    <poly id="1054489444" type="parking" color="184,184,179" fill="1" layer="-1.00" shape="14236.319227,16975.870055 14236.007889,16973.252610 14254.708017,16971.032707 14255.026675,16973.661077 14236.319227,16975.870055"/>
    <poly id="1054489445" type="parking" color="184,184,179" fill="1" layer="-1.00" shape="14194.001338,16983.394932 14193.791835,16981.664860 14208.443085,16979.901808 14208.645561,16981.632074 14194.001338,16983.394932"/>
    <poly id="1057268346" type="amenity" color="237,199,199" fill="1" layer="-1.00" shape="13758.777882,16903.525117 13765.475961,16904.841367 13765.106218,16906.709910 13758.408141,16905.393660 13758.777882,16903.525117"/>
    <poly id="1057268347" type="parking" color="184,184,179" fill="1" layer="-1.00" shape="13758.777882,16903.525117 13758.408141,16905.393660 13765.106218,16906.709910 13765.475961,16904.841367 13758.777882,16903.525117"/>
    <poly id="1057268348" type="parking" color="184,184,179" fill="1" layer="-1.00" shape="13688.446906,16890.177947 13688.055897,16892.291890 13726.400639,16899.327731 13726.791354,16897.202671 13688.446906,16890.177947"/>
    <poly id="1057268349" type="amenity" color="237,199,199" fill="1" layer="-1.00" shape="13676.336920,16887.810362 13681.672165,16888.886178 13681.301523,16890.721371 13675.980323,16889.645166 13676.336920,16887.810362"/>
    <poly id="1057268350" type="amenity" color="237,199,199" fill="1" layer="-1.00" shape="13671.326826,16886.803411 13676.336920,16887.810362 13675.980323,16889.645166 13670.956188,16888.638605 13671.326826,16886.803411"/>
    <poly id="1057268351" type="parking" color="184,184,179" fill="1" layer="-1.00" shape="13681.672165,16888.886178 13676.336920,16887.810362 13671.326826,16886.803411 13670.956188,16888.638605 13675.980323,16889.645166 13681.301523,16890.721371 13681.672165,16888.886178"/>
    <poly id="1071259213" type="natural" color="140,196,107" fill="0" layer="-4.00" shape="14381.723429,16796.103197 14358.976247,16773.709509"/>
    <poly id="1072076470" type="parking" color="184,184,179" fill="1" layer="-1.00" shape="13640.101147,18201.031640 13679.681872,18186.144660 13678.976505,18184.272595 13639.395457,18199.148461 13640.101147,18201.031640"/>
    <poly id="1075611845" type="parking" color="184,184,179" fill="1" layer="-1.00" shape="13449.010650,16665.160651 13452.759362,16643.802949 13458.090890,16644.733995 13454.342157,16666.091692 13449.010650,16665.160651"/>