<?xml version="1.0" encoding="UTF-8"?>

<!-- generated on 2026-06-20T20:58:42.657677+00:00 by Eclipse SUMO netconvert 1.26.0
<netconvertConfiguration xmlns:xsi="http://www.w3.org/2001/XMLSchema-instance" xsi:noNamespaceSchemaLocation="http://sumo.dlr.de/xsd/netconvertConfiguration.xsd">

    <input>
        <type-files value="C:\Program Files (x86)\Eclipse\Sumo\/data/typemap/osmNetconvert.typ.xml"/>
        <osm-files value="rabat.osm.xml"/>
    </input>

    <output>
        <output-file value="rabat.net.xml"/>
    </output>

    <projection>
        <proj.utm value="true"/>
    </projection>

    <processing>
        <geometry.remove value="true"/>
        <roundabouts.guess value="true"/>
    </processing>

    <tls_building>
        <tls.discard-simple value="true"/>
        <tls.join value="true"/>
        <tls.guess-signals value="true"/>
    </tls_building>

    <ramp_guessing>
        <ramps.guess value="true"/>
    </ramp_guessing>

    <edge_removal>
        <keep-edges.by-vclass value="passenger"/>
    </edge_removal>

    <junctions>
        <no-turnarounds value="true"/>
        <junctions.join value="true"/>
    </junctions>

    <pedestrian>
        <sidewalks.guess value="true"/>
        <crossings.guess value="true"/>
        <walkingareas value="true"/>
    </pedestrian>

    <report>
        <no-warnings value="true"/>
    </report>

</netconvertConfiguration>
-->

<net version="1.20" junctionCornerDetail="5" walkingareas="true" limitTurnSpeed="5.50" xmlns:xsi="http://www.w3.org/2001/XMLSchema-instance" xsi:noNamespaceSchemaLocation="http://sumo.dlr.de/xsd/net_file.xsd">

    <location netOffset="-699235.92,-3764565.59" convBoundary="0.00,0.00,1273.86,1918.14" origBoundary="-6.864592,33.982341,-6.823930,34.019974" projParameter="+proj=utm +zone=29 +ellps=WGS84 +datum=WGS84 +units=m +no_defs"/>

    <type id="highway.primary" priority="12" numLanes="2" speed="27.78" disallow="tram rail_urban rail rail_electric rail_fast ship container cable_car subway aircraft wheelchair scooter drone" oneway="0"/>
    <type id="highway.primary_link" priority="7" numLanes="1" speed="22.22" disallow="tram rail_urban rail rail_electric rail_fast ship container cable_car subway aircraft wheelchair scooter drone" oneway="0"/>
    <type id="highway.residential" priority="3" numLanes="1" speed="13.89" disallow="tram rail_urban rail rail_electric rail_fast ship container cable_car subway aircraft wheelchair scooter drone" oneway="0"/>
    <type id="highway.secondary" priority="11" numLanes="1" speed="27.78" disallow="tram rail_urban rail rail_electric rail_fast ship container cable_car subway aircraft wheelchair scooter drone" oneway="0"/>
    <type id="highway.tertiary" priority="10" numLanes="1" speed="22.22" disallow="tram rail_urban rail rail_electric rail_fast ship container cable_car subway aircraft wheelchair scooter drone" oneway="0"/>

    <edge id=":11874104996_0" function="internal">
        <lane id=":11874104996_0_0" index="0" disallow="pedestrian tram rail_urban rail rail_electric rail_fast ship container cable_car subway aircraft wheelchair scooter drone" speed="27.78" length="6.14" shape="456.49,1172.26 455.01,1171.60 454.37,1170.34 453.72,1169.05 452.25,1168.29"/>
    </edge>
    <edge id=":11874104996_1" function="internal">
        <lane id=":11874104996_1_0" index="0" disallow="pedestrian tram rail_urban rail rail_electric rail_fast ship container cable_car subway aircraft wheelchair scooter drone" speed="8.34" length="3.90" shape="457.01,1165.88 455.87,1165.77 455.09,1165.57 454.39,1165.18 453.48,1164.49"/>
    </edge>
    <edge id=":11874105083_0" function="internal">
        <lane id=":11874105083_0_0" index="0" disallow="pedestrian tram rail_urban rail rail_electric rail_fast ship container cable_car subway aircraft wheelchair scooter drone" speed="13.89" length="0.30" shape="523.14,1289.79 522.85,1289.87"/>
        <lane id=":11874105083_0_1" index="1" disallow="pedestrian tram rail_urban rail rail_electric rail_fast ship container cable_car subway aircraft wheelchair scooter drone" speed="13.89" length="0.30" shape="522.35,1286.69 522.06,1286.77"/>
    </edge>
    <edge id=":11874105083_w0" function="walkingarea">
        <lane id=":11874105083_w0_0" index="0" allow="pedestrian" speed="2.78" length="0.29" width="2.00" shape="523.25,1291.42 523.75,1293.35 524.03,1293.28 523.54,1291.34"/>
    </edge>
    <edge id=":11874105152_0" function="internal">
        <lane id=":11874105152_0_0" index="0" disallow="pedestrian tram rail_urban rail rail_electric rail_fast ship container cable_car subway aircraft wheelchair scooter drone" speed="13.89" length="0.30" shape="474.27,1189.01 474.50,1188.82"/>
        <lane id=":11874105152_0_1" index="1" disallow="pedestrian tram rail_urban rail rail_electric rail_fast ship container cable_car subway aircraft wheelchair scooter drone" speed="13.89" length="0.30" shape="476.26,1191.52 476.49,1191.33"/>
    </edge>
    <edge id=":11874105152_w0" function="walkingarea">
        <lane id=":11874105152_w0_0" index="0" allow="pedestrian" speed="2.78" length="0.30" width="2.00" shape="473.51,1187.57 472.27,1186.00 472.03,1186.19 473.28,1187.75"/>
    </edge>
    <edge id=":11874105315_0" function="internal">
        <lane id=":11874105315_0_0" index="0" disallow="pedestrian tram rail_urban rail rail_electric rail_fast ship container cable_car subway aircraft wheelchair scooter drone" speed="13.89" length="0.10" shape="326.76,1377.47 326.76,1377.47"/>
    </edge>
    <edge id=":11874105315_w0" function="walkingarea">
        <lane id=":11874105315_w0_0" index="0" allow="pedestrian" speed="2.78" length="0.10" width="2.00" shape="327.52,1376.06 328.47,1374.30 327.52,1376.06"/>
    </edge>
    <edge id=":12488127521_0" function="internal">
        <lane id=":12488127521_0_0" index="0" disallow="pedestrian tram rail_urban rail rail_electric rail_fast ship container cable_car subway aircraft wheelchair scooter drone" speed="16.67" length="10.82" shape="500.80,1176.24 497.99,1175.43 496.04,1174.95 494.06,1174.69 491.14,1174.54"/>
        <lane id=":12488127521_0_1" index="1" disallow="pedestrian tram rail_urban rail rail_electric rail_fast ship container cable_car subway aircraft wheelchair scooter drone" speed="16.67" length="10.82" shape="501.68,1173.17 498.60,1172.28 496.45,1171.77 494.27,1171.50 491.07,1171.33"/>
        <lane id=":12488127521_0_2" index="2" disallow="pedestrian tram rail_urban rail rail_electric rail_fast ship container cable_car subway aircraft wheelchair scooter drone" speed="16.67" length="10.82" shape="502.56,1170.09 499.20,1169.13 496.86,1168.59 494.48,1168.30 490.99,1168.13"/>
    </edge>
    <edge id=":12488127521_3" function="internal">
        <lane id=":12488127521_3_0" index="0" disallow="pedestrian tram rail_urban rail rail_electric rail_fast ship container cable_car subway aircraft wheelchair scooter drone" speed="16.67" length="7.94" shape="497.85,1161.03 499.95,1161.44 501.49,1161.08 503.05,1160.66 505.21,1160.87"/>
        <lane id=":12488127521_3_1" index="1" disallow="pedestrian tram rail_urban rail rail_electric rail_fast ship container cable_car subway aircraft wheelchair scooter drone" speed="16.67" length="7.94" shape="496.14,1163.79 498.47,1164.30 500.18,1164.02 501.93,1163.66 504.33,1163.94"/>
        <lane id=":12488127521_3_2" index="2" disallow="pedestrian tram rail_urban rail rail_electric rail_fast ship container cable_car subway aircraft wheelchair scooter drone" speed="16.67" length="7.94" shape="496.14,1163.79 498.31,1164.77 499.74,1165.55 501.21,1166.26 503.45,1167.02"/>
    </edge>
    <edge id=":12488127521_6" function="internal">
        <lane id=":12488127521_6_0" index="0" disallow="pedestrian tram rail_urban rail rail_electric rail_fast ship container cable_car subway aircraft wheelchair scooter drone" speed="5.61" length="3.21" shape="496.14,1163.79 498.04,1165.80 497.90,1166.22"/>
        <lane id=":12488127521_6_1" index="1" disallow="pedestrian tram rail_urban rail rail_electric rail_fast ship container cable_car subway aircraft wheelchair scooter drone" speed="6.34" length="6.61" shape="496.14,1163.79 500.46,1165.94 501.04,1167.38 500.81,1167.43"/>
    </edge>
    <edge id=":12488127521_8" function="internal">
        <lane id=":12488127521_8_0" index="0" disallow="pedestrian tram rail_urban rail rail_electric rail_fast ship container cable_car subway aircraft wheelchair scooter drone" speed="5.61" length="9.28" shape="497.90,1166.22 497.25,1168.35 494.65,1170.50 491.07,1171.33"/>
        <lane id=":12488127521_8_1" index="0" disallow="pedestrian tram rail_urban rail rail_electric rail_fast ship container cable_car subway aircraft wheelchair scooter drone" speed="6.34" length="9.89" shape="500.81,1167.43 497.88,1168.11 490.99,1168.13"/>
    </edge>
    <edge id=":12488232404_0" function="internal">
        <lane id=":12488232404_0_0" index="0" disallow="pedestrian tram rail_urban rail rail_electric rail_fast ship container cable_car subway aircraft wheelchair scooter drone" speed="16.67" length="8.56" shape="752.97,1271.55 751.20,1269.90 750.48,1268.20 749.75,1266.52 747.93,1264.95"/>
        <lane id=":12488232404_0_1" index="1" disallow="pedestrian tram rail_urban rail rail_electric rail_fast ship container cable_car subway aircraft wheelchair scooter drone" speed="16.67" length="8.56" shape="754.63,1268.81 752.82,1267.14 752.08,1265.42 751.33,1263.74 749.47,1262.14"/>
    </edge>
    <edge id=":12488232404_2" function="internal">
        <lane id=":12488232404_2_0" index="0" disallow="pedestrian tram rail_urban rail rail_electric rail_fast ship container cable_car subway aircraft wheelchair scooter drone" speed="16.67" length="8.91" shape="754.10,1253.74 756.05,1255.38 756.88,1257.11 757.68,1258.86 759.58,1260.59"/>
        <lane id=":12488232404_2_1" index="1" disallow="pedestrian tram rail_urban rail rail_electric rail_fast ship container cable_car subway aircraft wheelchair scooter drone" speed="16.67" length="8.91" shape="752.56,1256.54 754.48,1258.17 755.28,1259.88 756.06,1261.62 757.93,1263.33"/>
    </edge>
    <edge id=":1686040420_0" function="internal">
        <lane id=":1686040420_0_0" index="0" disallow="pedestrian tram rail_urban rail rail_electric rail_fast ship container cable_car subway aircraft wheelchair scooter drone" speed="27.78" length="8.00" shape="338.31,1408.75 338.16,1411.08 338.82,1412.73 339.49,1414.38 339.33,1416.70"/>
        <lane id=":1686040420_0_1" index="1" disallow="pedestrian tram rail_urban rail rail_electric rail_fast ship container cable_car subway aircraft wheelchair scooter drone" speed="27.78" length="8.00" shape="335.24,1407.86 335.08,1410.18 335.75,1411.83 336.42,1413.48 336.26,1415.81"/>
        <lane id=":1686040420_0_2" index="2" disallow="pedestrian tram rail_urban rail rail_electric rail_fast ship container cable_car subway aircraft wheelchair scooter drone" speed="27.78" length="8.00" shape="335.24,1407.86 333.19,1414.91"/>
        <lane id=":1686040420_0_3" index="3" disallow="pedestrian tram rail_urban rail rail_electric rail_fast ship container cable_car subway aircraft wheelchair scooter drone" speed="27.78" length="8.00" shape="335.24,1407.86 334.12,1409.90 332.68,1410.94 331.23,1411.98 330.11,1414.02"/>
    </edge>
    <edge id=":1686040423_0" function="internal">
        <lane id=":1686040423_0_0" index="0" disallow="pedestrian tram rail_urban rail rail_electric rail_fast ship container cable_car subway aircraft wheelchair scooter drone" speed="9.72" length="17.14" shape="363.41,1339.09 362.86,1344.16 362.50,1347.67 362.67,1351.14 363.73,1356.07"/>
    </edge>
    <edge id=":1686040423_1" function="internal">
        <lane id=":1686040423_1_0" index="0" disallow="pedestrian tram rail_urban rail rail_electric rail_fast ship container cable_car subway aircraft wheelchair scooter drone" speed="5.56" length="17.36" shape="363.41,1339.09 362.79,1344.24 361.78,1347.68 360.02,1350.87 357.14,1355.24"/>
        <lane id=":1686040423_1_1" index="1" disallow="pedestrian tram rail_urban rail rail_electric rail_fast ship container cable_car subway aircraft wheelchair scooter drone" speed="5.56" length="17.36" shape="360.23,1338.82 359.55,1343.77 358.44,1347.05 356.64,1350.10 353.90,1354.37"/>
    </edge>
    <edge id=":1686040465_0" function="internal">
        <lane id=":1686040465_0_0" index="0" disallow="pedestrian tram rail_urban rail rail_electric rail_fast ship container cable_car subway aircraft wheelchair scooter drone" speed="6.52" length="8.83" shape="558.16,1405.45 558.01,1404.59 557.01,1403.44 555.16,1402.02 552.46,1400.31"/>
        <lane id=":1686040465_0_1" index="1" disallow="pedestrian tram rail_urban rail rail_electric rail_fast ship container cable_car subway aircraft wheelchair scooter drone" speed="7.16" length="8.83" shape="558.16,1405.45 558.55,1403.28 558.00,1401.24 556.52,1399.33 554.09,1397.56"/>
    </edge>
    <edge id=":1686040465_c0" function="crossing" crossingEdges="-343185250#1 156345566">
        <lane id=":1686040465_c0_0" index="0" allow="pedestrian" speed="2.78" length="4.83" width="4.00" shape="561.82,1401.08 557.39,1403.00" outlineShape="562.62,1402.91 558.09,1404.88 556.48,1404.35 555.72,1403.74 554.62,1403.12 553.43,1402.54 561.03,1399.24"/>
    </edge>
    <edge id=":1686040465_w0" function="walkingarea">
        <lane id=":1686040465_w0_0" index="0" allow="pedestrian" speed="2.78" length="6.14" width="4.00" shape="551.65,1401.69 550.63,1403.41 553.12,1407.49 554.87,1408.45 558.19,1404.84 556.48,1404.35 555.72,1403.74 554.62,1403.12 553.41,1402.53 552.34,1402.04"/>
    </edge>
    <edge id=":1686040465_w1" function="walkingarea">
        <lane id=":1686040465_w1_0" index="0" allow="pedestrian" speed="2.78" length="2.02" width="4.00" shape="561.03,1399.24 562.62,1402.91 562.59,1402.66 564.39,1401.79"/>
    </edge>
    <edge id=":1713013503_0" function="internal">
        <lane id=":1713013503_0_0" index="0" disallow="tram rail_urban rail rail_electric rail_fast ship container cable_car subway aircraft wheelchair scooter drone" speed="27.78" length="39.44" shape="889.48,1260.72 878.24,1267.43 868.95,1271.99 861.30,1275.71 854.98,1279.87"/>
        <lane id=":1713013503_0_1" index="1" disallow="tram rail_urban rail rail_electric rail_fast ship container cable_car subway aircraft wheelchair scooter drone" speed="27.78" length="39.44" shape="889.48,1260.72 878.09,1266.91 868.35,1270.42 860.23,1273.09 853.70,1276.77"/>
    </edge>
    <edge id=":1713013503_2" function="internal">
        <lane id=":1713013503_2_0" index="0" disallow="tram rail_urban rail rail_electric rail_fast ship container cable_car subway aircraft wheelchair scooter drone" speed="27.78" length="37.60" shape="887.71,1258.06 878.28,1263.89 871.32,1267.02 863.90,1269.13 853.08,1271.89"/>
        <lane id=":1713013503_2_1" index="1" disallow="tram rail_urban rail rail_electric rail_fast ship container cable_car subway aircraft wheelchair scooter drone" speed="27.78" length="36.50" shape="885.94,1255.40 876.78,1261.05 870.02,1264.08 862.81,1266.11 852.30,1268.79"/>
        <lane id=":1713013503_2_2" index="2" disallow="tram rail_urban rail rail_electric rail_fast ship container cable_car subway aircraft wheelchair scooter drone" speed="27.78" length="35.38" shape="884.16,1252.73 875.27,1258.17 868.68,1261.01 861.68,1262.95 851.52,1265.66"/>
        <lane id=":1713013503_2_3" index="3" disallow="tram rail_urban rail rail_electric rail_fast ship container cable_car subway aircraft wheelchair scooter drone" speed="27.78" length="35.20" shape="884.16,1252.73 875.18,1257.66 868.29,1259.44 860.98,1260.33 850.74,1262.56"/>
    </edge>
    <edge id=":1713013503_w0" function="walkingarea">
        <lane id=":1713013503_w0_0" index="0" allow="pedestrian" speed="2.78" length="28.58" width="3.20" shape="890.37,1262.06 883.28,1251.40 876.89,1255.16 871.81,1257.17 867.30,1258.12 862.59,1258.66 856.95,1259.46 849.63,1261.21 852.29,1273.77 853.06,1275.22 855.64,1281.47 861.61,1275.60 866.78,1272.23 871.70,1270.28 876.91,1268.66 882.96,1266.28"/>
    </edge>
    <edge id=":1718427413_0" function="internal">
        <lane id=":1718427413_0_0" index="0" disallow="pedestrian tram rail_urban rail rail_electric rail_fast ship container cable_car subway aircraft wheelchair scooter drone" speed="22.23" length="6.79" shape="438.60,1141.89 440.39,1142.57 441.75,1142.63 443.16,1142.59 445.08,1142.99"/>
        <lane id=":1718427413_0_1" index="1" disallow="pedestrian tram rail_urban rail rail_electric rail_fast ship container cable_car subway aircraft wheelchair scooter drone" speed="22.23" length="6.79" shape="438.60,1141.89 440.26,1143.07 441.24,1144.15 442.26,1145.14 444.05,1146.02"/>
    </edge>
    <edge id=":1720583782_0" function="internal">
        <lane id=":1720583782_0_0" index="0" disallow="pedestrian tram rail_urban rail rail_electric rail_fast ship container cable_car subway aircraft wheelchair scooter drone" speed="6.69" length="8.47" shape="891.61,1120.89 892.62,1122.76 894.09,1123.97 896.04,1124.50 898.46,1124.35"/>
    </edge>
    <edge id=":1720583782_1" function="internal">
        <lane id=":1720583782_1_0" index="0" disallow="pedestrian tram rail_urban rail rail_electric rail_fast ship container cable_car subway aircraft wheelchair scooter drone" speed="5.81" length="7.82" shape="884.17,1126.94 886.62,1126.24 888.17,1125.17 888.83,1123.73 888.59,1121.94"/>
    </edge>
    <edge id=":1720583782_2" function="internal">
        <lane id=":1720583782_2_0" index="0" disallow="pedestrian tram rail_urban rail rail_electric rail_fast ship container cable_car subway aircraft wheelchair scooter drone" speed="27.78" length="14.52" shape="884.17,1126.94 898.46,1124.35"/>
        <lane id=":1720583782_2_1" index="1" disallow="pedestrian tram rail_urban rail rail_electric rail_fast ship container cable_car subway aircraft wheelchair scooter drone" speed="27.78" length="14.52" shape="884.74,1130.09 899.03,1127.50"/>
    </edge>
    <edge id=":1720583782_c0" function="crossing" crossingEdges="-1093531413 59969256#0">
        <lane id=":1720583782_c0_0" index="0" allow="pedestrian" speed="2.78" length="6.40" width="4.00" shape="887.74,1124.35 893.78,1122.25" outlineShape="887.08,1122.47 893.13,1120.36 893.57,1121.30 894.17,1122.02 894.93,1122.53 895.85,1122.83 896.37,1122.87 894.44,1124.14 888.39,1126.24 885.70,1124.84 886.00,1124.73 886.66,1124.28 887.06,1123.76 887.20,1123.15"/>
    </edge>
    <edge id=":1720583782_w0" function="walkingarea">
        <lane id=":1720583782_w0_0" index="0" allow="pedestrian" speed="2.78" length="2.24" width="4.00" shape="895.01,1119.71 893.13,1120.36 893.57,1121.30 894.17,1122.02 894.93,1122.53 895.85,1122.83 896.93,1122.91"/>
    </edge>
    <edge id=":1720583782_w1" function="walkingarea">
        <lane id=":1720583782_w1_0" index="0" allow="pedestrian" speed="2.78" length="2.24" width="4.00" shape="887.08,1122.47 885.19,1123.12 885.07,1125.09 886.00,1124.73 886.66,1124.28 887.06,1123.76 887.20,1123.15"/>
    </edge>
    <edge id=":1720600953_0" function="internal">
        <lane id=":1720600953_0_0" index="0" disallow="pedestrian tram rail_urban rail rail_electric rail_fast ship container cable_car subway aircraft wheelchair scooter drone" speed="27.78" length="8.19" shape="322.88,916.10 323.56,918.37 324.39,919.82 325.24,921.26 325.96,923.53"/>
        <lane id=":1720600953_0_1" index="1" disallow="pedestrian tram rail_urban rail rail_electric rail_fast ship container cable_car subway aircraft wheelchair scooter drone" speed="27.78" length="8.19" shape="322.88,916.10 323.07,918.48 322.83,920.14 322.60,921.80 322.82,924.17"/>
        <lane id=":1720600953_0_2" index="2" disallow="pedestrian tram rail_urban rail rail_electric rail_fast ship container cable_car subway aircraft wheelchair scooter drone" speed="27.78" length="8.19" shape="319.73,916.68 319.93,919.08 319.68,920.75 319.46,922.42 319.69,924.81"/>
        <lane id=":1720600953_0_3" index="3" disallow="pedestrian tram rail_urban rail rail_electric rail_fast ship container cable_car subway aircraft wheelchair scooter drone" speed="27.78" length="8.19" shape="316.59,917.27 316.78,919.68 316.54,921.37 316.32,923.05 316.55,925.45"/>
        <lane id=":1720600953_0_4" index="4" disallow="pedestrian tram rail_urban rail rail_electric rail_fast ship container cable_car subway aircraft wheelchair scooter drone" speed="27.78" length="8.19" shape="313.44,917.85 313.64,920.28 313.40,921.98 313.18,923.67 313.42,926.09"/>
    </edge>
    <edge id=":1722651690_0" function="internal">
        <lane id=":1722651690_0_0" index="0" disallow="pedestrian tram rail_urban rail rail_electric rail_fast ship container cable_car subway aircraft wheelchair scooter drone" speed="8.17" length="21.61" shape="54.57,1001.21 53.37,994.13 54.53,989.75 58.07,988.08 63.98,989.10"/>
        <lane id=":1722651690_0_1" index="1" disallow="pedestrian tram rail_urban rail rail_electric rail_fast ship container cable_car subway aircraft wheelchair scooter drone" speed="6.69" length="14.01" shape="57.80,1000.86 56.89,995.98 57.45,992.90 59.48,991.62 62.96,992.13"/>
    </edge>
    <edge id=":1722651695_0" function="internal">
        <lane id=":1722651695_0_0" index="0" disallow="pedestrian tram rail_urban rail rail_electric rail_fast ship container cable_car subway aircraft wheelchair scooter drone" speed="5.64" length="8.50" shape="341.00,1328.21 343.09,1328.97 344.70,1328.58 345.82,1327.05 346.46,1324.39"/>
    </edge>
    <edge id=":1722651695_1" function="internal">
        <lane id=":1722651695_1_0" index="0" disallow="pedestrian tram rail_urban rail rail_electric rail_fast ship container cable_car subway aircraft wheelchair scooter drone" speed="7.84" length="6.49" shape="343.89,1339.61 344.08,1337.06 343.38,1334.76 342.44,1333.55"/>
    </edge>
    <edge id=":1722651695_2" function="internal">
        <lane id=":1722651695_2_0" index="0" disallow="pedestrian tram rail_urban rail rail_electric rail_fast ship container cable_car subway aircraft wheelchair scooter drone" speed="27.78" length="15.62" shape="343.89,1339.61 344.91,1335.14 345.49,1332.06 345.91,1328.94 346.46,1324.39"/>
        <lane id=":1722651695_2_1" index="1" disallow="pedestrian tram rail_urban rail rail_electric rail_fast ship container cable_car subway aircraft wheelchair scooter drone" speed="27.78" length="15.62" shape="347.01,1340.34 348.05,1335.77 348.64,1332.62 349.07,1329.44 349.63,1324.78"/>
    </edge>
    <edge id=":1722651695_4" function="internal">
        <lane id=":1722651695_4_0" index="0" disallow="pedestrian tram rail_urban rail rail_electric rail_fast ship container cable_car subway aircraft wheelchair scooter drone" speed="7.84" length="4.12" shape="342.44,1333.55 341.79,1332.72 339.31,1330.93"/>
    </edge>
    <edge id=":1722651695_c0" function="crossing" crossingEdges="4330468#0 -4330468#3">
        <lane id=":1722651695_c0_0" index="0" allow="pedestrian" speed="2.78" length="6.40" width="4.00" shape="340.26,1333.31 343.53,1327.81" outlineShape="338.49,1332.37 341.86,1326.70 342.59,1327.15 343.28,1327.18 343.85,1326.89 344.30,1326.30 345.25,1328.83 341.98,1334.33 338.54,1332.29 338.43,1332.27 337.44,1334.01 342.50,1337.89 342.35,1336.61 341.88,1335.42 341.58,1335.00"/>
    </edge>
    <edge id=":1722651695_w0" function="walkingarea">
        <lane id=":1722651695_w0_0" index="0" allow="pedestrian" speed="2.78" length="2.14" width="4.00" shape="342.87,1325.13 341.89,1326.87 341.81,1326.78 342.59,1327.15 343.28,1327.18 343.85,1326.89 344.30,1326.30 344.64,1325.40"/>
    </edge>
    <edge id=":1722651695_w1" function="walkingarea">
        <lane id=":1722651695_w1_0" index="0" allow="pedestrian" speed="2.78" length="2.33" width="4.00" shape="338.54,1332.29 338.43,1332.27 337.44,1334.01 342.50,1337.89 342.35,1336.61 341.88,1335.42 341.08,1334.30 339.96,1333.27"/>
    </edge>
    <edge id=":1872090913_0" function="internal">
        <lane id=":1872090913_0_0" index="0" disallow="pedestrian tram rail_urban rail rail_electric rail_fast ship container cable_car subway aircraft wheelchair scooter drone" speed="7.77" length="11.51" shape="533.00,1296.43 531.10,1292.91 529.13,1290.55 527.11,1289.35 525.02,1289.31"/>
    </edge>
    <edge id=":1872090913_1" function="internal">
        <lane id=":1872090913_1_0" index="0" disallow="pedestrian tram rail_urban rail rail_electric rail_fast ship container cable_car subway aircraft wheelchair scooter drone" speed="22.22" length="16.11" shape="533.00,1296.43 526.47,1281.70"/>
    </edge>
    <edge id=":1872090913_2" function="internal">
        <lane id=":1872090913_2_0" index="0" disallow="pedestrian tram rail_urban rail rail_electric rail_fast ship container cable_car subway aircraft wheelchair scooter drone" speed="5.57" length="9.15" shape="539.07,1289.37 536.54,1289.36 535.17,1290.31 534.96,1292.23 535.91,1295.10"/>
    </edge>
    <edge id=":1872090913_3" function="internal">
        <lane id=":1872090913_3_0" index="0" disallow="pedestrian tram rail_urban rail rail_electric rail_fast ship container cable_car subway aircraft wheelchair scooter drone" speed="13.89" length="14.88" shape="539.07,1289.37 534.90,1288.66 531.99,1288.28 529.11,1288.44 525.02,1289.31"/>
        <lane id=":1872090913_3_1" index="1" disallow="pedestrian tram rail_urban rail rail_electric rail_fast ship container cable_car subway aircraft wheelchair scooter drone" speed="13.89" length="14.88" shape="539.57,1286.21 535.02,1285.44 531.84,1285.05 528.69,1285.24 524.23,1286.21"/>
    </edge>
    <edge id=":1872090913_5" function="internal">
        <lane id=":1872090913_5_0" index="0" disallow="pedestrian tram rail_urban rail rail_electric rail_fast ship container cable_car subway aircraft wheelchair scooter drone" speed="22.22" length="16.01" shape="529.42,1280.46 535.91,1295.10"/>
    </edge>
    <edge id=":1872090913_6" function="internal">
        <lane id=":1872090913_6_0" index="0" disallow="pedestrian tram rail_urban rail rail_electric rail_fast ship container cable_car subway aircraft wheelchair scooter drone" speed="6.18" length="2.03" shape="529.42,1280.46 529.72,1282.32 529.66,1282.45"/>
    </edge>
    <edge id=":1872090913_7" function="internal">
        <lane id=":1872090913_7_0" index="0" disallow="pedestrian tram rail_urban rail rail_electric rail_fast ship container cable_car subway aircraft wheelchair scooter drone" speed="6.18" length="6.93" shape="529.66,1282.45 528.96,1283.90 527.13,1285.20 524.23,1286.21"/>
    </edge>
    <edge id=":1872091199_0" function="internal">
        <lane id=":1872091199_0_0" index="0" disallow="pedestrian tram rail_urban rail rail_electric rail_fast ship container cable_car subway aircraft wheelchair scooter drone" speed="13.89" length="13.83" shape="446.49,1330.60 442.78,1328.25 440.28,1326.42 438.39,1324.08 436.53,1320.21"/>
        <lane id=":1872091199_0_1" index="1" disallow="pedestrian tram rail_urban rail rail_electric rail_fast ship container cable_car subway aircraft wheelchair scooter drone" speed="13.89" length="13.83" shape="448.24,1327.93 445.00,1325.90 442.80,1324.34 441.12,1322.34 439.49,1318.99"/>
    </edge>
    <edge id=":1872091199_2" function="internal">
        <lane id=":1872091199_2_0" index="0" disallow="pedestrian tram rail_urban rail rail_electric rail_fast ship container cable_car subway aircraft wheelchair scooter drone" speed="7.26" length="5.45" shape="447.31,1321.91 443.60,1323.62 442.24,1323.75"/>
        <lane id=":1872091199_2_1" index="1" disallow="pedestrian tram rail_urban rail rail_electric rail_fast ship container cable_car subway aircraft wheelchair scooter drone" speed="5.59" length="4.28" shape="445.67,1319.16 443.44,1320.25 441.67,1320.59"/>
    </edge>
    <edge id=":1872091199_6" function="internal">
        <lane id=":1872091199_6_0" index="0" disallow="pedestrian tram rail_urban rail rail_electric rail_fast ship container cable_car subway aircraft wheelchair scooter drone" speed="7.26" length="7.36" shape="442.24,1323.75 440.57,1323.90 438.21,1322.77 436.53,1320.21"/>
        <lane id=":1872091199_6_1" index="0" disallow="pedestrian tram rail_urban rail rail_electric rail_fast ship container cable_car subway aircraft wheelchair scooter drone" speed="5.59" length="2.84" shape="441.67,1320.59 440.35,1320.16 439.49,1318.99"/>
    </edge>
    <edge id=":1872091199_4" function="internal">
        <lane id=":1872091199_4_0" index="0" disallow="pedestrian tram rail_urban rail rail_electric rail_fast ship container cable_car subway aircraft wheelchair scooter drone" speed="9.44" length="9.88" shape="435.19,1329.67 436.41,1327.07 437.04,1324.62 437.08,1322.34 436.53,1320.21"/>
        <lane id=":1872091199_4_1" index="1" disallow="pedestrian tram rail_urban rail rail_electric rail_fast ship container cable_car subway aircraft wheelchair scooter drone" speed="10.67" length="12.77" shape="437.98,1331.24 439.49,1327.96 440.25,1324.82 440.25,1321.83 439.49,1318.99"/>
    </edge>
    <edge id=":1872091199_c0" function="crossing" crossingEdges="312726777">
        <lane id=":1872091199_c0_0" index="0" allow="pedestrian" speed="2.78" length="6.40" width="4.00" shape="447.45,1325.49 443.94,1330.84" outlineShape="449.12,1326.59 445.61,1331.94 444.18,1331.12 442.91,1330.63 441.79,1330.48 442.27,1329.74 445.78,1324.40 447.63,1323.68 447.30,1324.21 447.32,1324.74 447.63,1325.32 448.23,1325.93"/>
    </edge>
    <edge id=":1872091199_c1" function="crossing" crossingEdges="590116711">
        <lane id=":1872091199_c1_0" index="0" allow="pedestrian" speed="2.78" length="6.40" width="4.00" shape="440.36,1330.29 434.78,1327.14" outlineShape="439.37,1332.03 433.80,1328.89 434.57,1327.36 435.11,1325.91 435.29,1325.13 435.76,1325.40 441.34,1328.54 442.91,1330.63 441.79,1330.48 440.83,1330.66 440.03,1331.18"/>
    </edge>
    <edge id=":1872091199_w0" function="walkingarea">