<?xml version="1.0" encoding="UTF-8"?>

<!-- generated on 2026-06-20T20:59:09.700079+00:00 by Eclipse SUMO polyconvert 1.26.0
<polyconvertConfiguration xmlns:xsi="http://www.w3.org/2001/XMLSchema-instance" xsi:noNamespaceSchemaLocation="http://sumo.dlr.de/xsd/polyconvertConfiguration.xsd">

    <input>
        <net-file value="rabat.net.xml"/>
        <osm-files value="rabat.osm.xml"/>
        <type-file value="C:\Program Files (x86)\Eclipse\Sumo\/data/typemap/osmPolyconvert.typ.xml"/>
    </input>

    <output>
        <output-file value="rabat.poly.xml"/>
    </output>

    <report>
        <no-warnings value="true"/>
    </report>

</polyconvertConfiguration>
-->

<additional xmlns:xsi="http://www.w3.org/2001/XMLSchema-instance" xsi:noNamespaceSchemaLocation="http://sumo.dlr.de/xsd/additional_file.xsd">
    <location netOffset="-699235.92,-3764565.59" convBoundary="-1977.58,-2312.38,1896.99,2184.28" origBoundary="-6.864592,33.982341,-6.821940,34.022394" projParameter="+proj=utm +zone=29 +ellps=WGS84 +datum=WGS84 +units=m +no_defs"/>

    <poly id="1021364678" type="amenity" color="237,199,199" fill="1" layer="-1.00" shape="763.848766,1129.364491 767.006115,1129.930596 769.215027,1128.157620 769.498867,1125.223244 767.980002,1123.204967 765.427527,1122.873574 763.232308,1124.436020 762.512421,1127.017203 763.848766,1129.364491"/>
    <poly id="1050887970" type="building" color="255,230,230" fill="1" layer="-1.00" shape="778.607890,964.138849 755.619972,953.577588 760.586345,942.886457 783.565049,953.447534 778.607890,964.138849"/>
    <poly id="1050887971" type="building" color="255,230,230" fill="1" layer="-1.00" shape="775.241739,945.049479 759.359580,937.978366 776.803741,899.168210 792.694959,906.250635 775.241739,945.049479"/>
    <poly id="1051448515" type="building" color="255,230,230" fill="1" layer="-1.00" shape="507.600450,1047.796758 528.782602,973.270289 569.281092,984.689249 548.089397,1059.215447 507.600450,1047.796758"/>
    <poly id="1051941567" type="building" color="255,230,230" fill="1" layer="-1.00" shape="804.673252,929.694238 804.346902,927.212975 803.993698,924.254026 809.163391,923.608895 809.842941,929.049109 804.673252,929.694238"/>
    <poly id="1051941568" type="building" color="255,230,230" fill="1" layer="-1.00" shape="798.036951,928.033707 797.329216,922.615090 803.639171,921.794358 804.346902,927.212975 798.036951,928.033707"/>
    <poly id="1051941569" type="building" color="255,230,230" fill="1" layer="-1.00" shape="804.553217,949.342319 803.497250,943.350449 809.766644,942.262565 810.194823,944.734887 810.813371,948.254240 804.553217,949.342319"/>
    <poly id="1051941570" type="building" color="255,230,230" fill="1" layer="-1.00" shape="810.194823,944.734887 809.607870,939.285537 816.300416,939.160847 816.395742,944.699657 810.194823,944.734887"/>
    <poly id="1051941571" type="building" color="255,230,230" fill="1" layer="-1.00" shape="794.264412,939.071857 791.652097,939.382748 791.282999,936.301409 799.833236,935.283966 800.107221,937.619876 798.754765,937.779889 799.179596,941.284047 794.594133,941.830585 794.264412,939.071857"/>
    <poly id="1051941572" type="building" color="255,230,230" fill="1" layer="-1.00" shape="789.988222,935.918951 796.907748,935.111112 796.249009,929.560383 789.329479,930.368223 789.988222,935.918951"/>
    <poly id="1051941573" type="building" color="255,230,230" fill="1" layer="-1.00" shape="792.219318,980.704323 794.348176,977.476110 790.192157,974.758481 800.988930,958.398729 816.401043,968.466926 813.327301,973.117592 822.851289,979.355223 824.588572,976.728998 829.491844,979.939575 821.120547,992.589151 811.441906,986.237291 807.327653,992.463734 804.037568,990.308113 804.195417,988.525033 792.219318,980.704323"/>
    <poly id="1051941574" type="building" color="255,230,230" fill="1" layer="-1.00" shape="817.288962,936.984801 816.377326,924.172080 818.292951,924.035081 817.880229,918.212161 829.428931,917.413530 830.418033,915.648040 835.830067,915.340926 835.945069,917.329504 845.806939,916.772592 845.922409,918.738989 854.674069,918.247358 855.674691,936.021783 843.574190,936.697745 843.743128,939.630606 836.592145,940.022969 835.911866,938.111195 820.578125,939.184788 820.407385,936.773392 817.288962,936.984801"/>
    <poly id="1051941575" type="building" color="255,230,230" fill="1" layer="-1.00" shape="827.485713,941.561207 827.552644,942.328232 829.468969,942.157963 829.602127,943.725286 838.211618,942.964334 838.612964,947.577576 831.031026,948.249313 831.270957,950.884090 837.732982,950.299611 838.032953,953.590310 833.904049,953.957862 834.158392,957.658139 844.363514,956.598086 844.069965,953.440673 846.643692,953.206650 846.213234,948.659366 843.028284,948.958124 842.818024,946.667944 844.352923,945.746190 844.247629,943.735625 841.083965,943.901686 840.898818,940.424789 827.485713,941.561207"/>
    <poly id="1051941576" type="building" color="255,230,230" fill="1" layer="-1.00" shape="833.109940,972.271285 832.333643,964.853972 835.564768,964.556188 835.107372,959.098481 834.336555,959.281893 834.158392,957.658139 844.363514,956.598086 846.400844,956.385999 846.732509,959.488741 840.028005,960.179040 840.312940,962.870248 845.128359,962.372983 846.028482,970.924687 833.109940,972.271285"/>
    <poly id="1051941577" type="building" color="255,230,230" fill="1" layer="-1.00" shape="836.827478,975.623210 836.610246,972.789189 846.947556,972.031524 847.552274,980.133145 841.170552,978.233861 836.827478,975.623210"/>
    <poly id="1055943348" type="building" color="255,230,230" fill="1" layer="-1.00" shape="912.011723,1095.795233 917.368322,1094.610431 916.772994,1088.251036 913.885826,1086.270340 911.253821,1087.512826 910.779505,1090.276731 912.011723,1095.795233"/>
    <poly id="1055943349" type="building" color="255,230,230" fill="1" layer="-1.00" shape="905.749137,1092.200765 908.731088,1091.886637 907.793316,1082.934675 904.811597,1083.237713 905.749137,1092.200765"/>
    <poly id="1055943351" type="building" color="255,230,230" fill="1" layer="-1.00" shape="893.993817,1111.935422 909.646321,1105.831227 905.995222,1093.670619 900.667585,1095.233297 900.119215,1091.892952 889.835639,1091.863888 889.652192,1097.474472 893.993817,1111.935422"/>
    <poly id="1055943352" type="building" color="255,230,230" fill="1" layer="-1.00" shape="882.986671,1116.407031 887.728360,1114.587833 891.947910,1112.990595 890.230800,1108.116484 885.697462,1109.695984 881.173362,1111.275682 882.986671,1116.407031"/>
    <poly id="1055943353" type="building" color="255,230,230" fill="1" layer="-1.00" shape="803.257911,1093.970569 811.212111,1097.534187 813.228463,1093.071967 809.228508,1091.278577 810.952210,1087.109750 810.356803,1086.864140 811.280684,1084.686725 807.965205,1083.296172 807.031385,1085.506664 806.188720,1085.155960 803.140175,1092.547818 803.781291,1092.816587 803.257911,1093.970569"/>
    <poly id="1055943354" type="building" color="255,230,230" fill="1" layer="-1.00" shape="864.355505,1037.543284 869.577822,1037.465189 869.543760,1035.145450 870.523478,1035.132899 870.453558,1031.014883 870.485630,1027.753402 860.456839,1027.907299 860.503823,1030.926347 858.183948,1030.954917 858.233126,1034.306884 855.349389,1034.345714 855.369360,1036.021599 851.894051,1036.070101 851.940098,1039.133511 853.492915,1039.110896 853.532696,1041.597193 850.279052,1041.650387 850.329406,1044.946900 860.062392,1044.797828 860.020420,1041.978611 864.494151,1041.906861 864.435035,1038.587971 864.366465,1037.898581 864.355505,1037.543284"/>
    <poly id="1055943355" type="building" color="255,230,230" fill="1" layer="-1.00" shape="851.647137,1060.397925 855.626343,1060.115982 855.740795,1063.003308 854.446354,1063.042486 854.563001,1066.262732 858.234132,1066.129611 858.260359,1067.073307 861.246856,1066.981176 861.425019,1069.914234 871.972072,1069.283096 871.778257,1066.216557 871.592504,1063.205668 870.075226,1063.295606 870.054245,1062.540649 868.842927,1062.581585 867.668553,1062.623303 866.485177,1062.653734 866.470615,1062.032062 866.450419,1061.676570 866.432336,1061.221260 866.323132,1058.522673 860.876346,1058.729167 860.662647,1055.728783 851.362435,1056.386323 851.647137,1060.397925"/>
    <poly id="1055943356" type="building" color="255,230,230" fill="1" layer="-1.00" shape="842.611766,1103.990660 841.413117,1102.123392 831.092205,1108.662303 832.290855,1110.529569 832.297509,1110.651764 831.678082,1111.104678 844.867246,1129.270204 869.853162,1119.624204 864.637029,1111.990856 851.183281,1121.170807 849.560562,1118.384709 848.035628,1119.273385 838.715642,1106.460235 842.611766,1103.990660"/>
    <poly id="1055943357" type="building" color="255,230,230" fill="1" layer="-1.00" shape="873.482788,1119.268295 881.132603,1116.256827 879.770999,1112.921461 872.613502,1115.810202 870.253867,1112.043168 868.718286,1112.998190 872.883474,1119.643962 873.482788,1119.268295"/>
    <poly id="1055943358" type="building" color="255,230,230" fill="1" layer="-1.00" shape="867.234122,1112.833627 879.306508,1104.745130 875.579166,1099.240394 863.506778,1107.328895 867.234122,1112.833627"/>
    <poly id="1055943359" type="building" color="255,230,230" fill="1" layer="-1.00" shape="897.633189,1062.669502 907.052136,1061.204529 906.213063,1055.882980 896.803347,1057.348149 897.633189,1062.669502"/>
    <poly id="1055943360" type="building" color="255,230,230" fill="1" layer="-1.00" shape="896.590411,1071.335428 907.173079,1069.895091 906.283364,1063.473986 895.700455,1064.925416 896.590411,1071.335428"/>
    <poly id="1055943361" type="building" color="255,230,230" fill="1" layer="-1.00" shape="822.540568,1118.922464 823.325949,1120.670026 823.158061,1120.744144 824.362038,1123.232885 820.295057,1125.044200 823.604551,1132.393067 827.867596,1130.486041 828.690858,1132.190022 833.012606,1130.128899 832.242413,1128.536998 828.998278,1121.156224 828.737092,1121.272751 828.980745,1121.111470 827.083042,1116.910393 827.316287,1116.804371 824.351264,1110.206210 824.099548,1110.311841 823.216795,1108.362495 818.683084,1110.396946 819.556836,1112.335005 815.191486,1114.273158 818.147278,1120.871120 822.540568,1118.922464"/>
    <poly id="1055943362" type="building" color="255,230,230" fill="1" layer="-1.00" shape="854.564006,1022.556467 854.678920,1024.112308 856.974140,1023.938969 857.218918,1027.217406 868.130211,1026.405341 867.913695,1023.538046 868.061941,1023.518992 867.837128,1020.607139 863.135854,1020.951466 862.609746,1013.938892 856.575669,1014.388163 856.432496,1012.421180 847.807175,1013.059722 848.101586,1017.049338 851.322285,1016.806818 851.500841,1019.284957 850.797497,1019.336646 851.056524,1022.815108 854.564006,1022.556467"/>
    <poly id="1055943363" type="building" color="255,230,230" fill="1" layer="-1.00" shape="846.676302,1002.750000 856.150019,1002.628722 856.102951,999.176937 860.619831,999.250343 860.635477,998.074521 865.085277,997.824732 864.446900,986.948450 854.122126,987.551019 854.313133,990.750647 851.819173,990.708961 851.781464,992.927319 849.727078,993.072469 850.153316,999.128690 846.622577,999.176021 846.676302,1002.750000"/>
    <poly id="1060443551" type="building" color="255,230,230" fill="1" layer="-1.00" shape="817.412438,1422.372392 830.998343,1427.009471 837.921913,1414.207224 823.181736,1404.297401 817.412438,1422.372392"/>
    <poly id="1060443552" type="building" color="255,230,230" fill="1" layer="-1.00" shape="825.710135,1454.659210 838.178514,1464.509863 844.491917,1456.088640 831.047379,1446.084168 825.710135,1454.659210"/>
    <poly id="1060443553" type="building" color="255,230,230" fill="1" layer="-1.00" shape="849.549484,1437.155316 863.883841,1446.590573 870.363752,1436.852490 856.029620,1427.406133 849.549484,1437.155316"/>
    <poly id="1060443554" type="building" color="255,230,230" fill="1" layer="-1.00" shape="863.883841,1446.590573 880.902904,1457.525142 886.766626,1448.961274 870.363752,1436.852490 863.883841,1446.590573"/>
    <poly id="1060443556" type="building" color="255,230,230" fill="1" layer="-1.00" shape="872.047203,1478.231045 875.509283,1480.545686 883.758816,1486.290418 892.181480,1472.510227 884.803368,1466.628595 882.527350,1465.027000 872.047203,1478.231045"/>
    <poly id="1060443557" type="building" color="255,230,230" fill="1" layer="-1.00" shape="857.480738,1486.311111 867.242088,1493.530284 875.509283,1480.545686 872.047203,1478.231045 867.770510,1473.369321 857.480738,1486.311111"/>
    <poly id="1060443558" type="building" color="255,230,230" fill="1" layer="-1.00" shape="846.090700,1477.026947 857.480738,1486.311111 867.770510,1473.369321 856.084298,1463.235596 846.090700,1477.026947"/>
    <poly id="1060443559" type="building" color="255,230,230" fill="1" layer="-1.00" shape="835.570976,1468.094092 846.090700,1477.026947 856.084298,1463.235596 845.204773,1455.149490 844.491917,1456.088640 838.178514,1464.509863 835.570976,1468.094092"/>
    <poly id="1060443560" type="building" color="255,230,230" fill="1" layer="-1.00" shape="821.799834,1457.805326 818.608075,1456.250941 816.042844,1454.343655 814.233438,1452.086205 813.801224,1449.369687 814.374268,1445.431714 815.944754,1441.514850 821.290521,1443.014958 831.047379,1446.084168 825.710135,1454.659210 823.401659,1458.083334 821.799834,1457.805326"/>
    <poly id="1060443561" type="building" color="255,230,230" fill="1" layer="-1.00" shape="840.469770,1429.595530 838.068744,1428.224312 830.998343,1427.009471 837.967621,1414.230383 856.029620,1427.406133 849.549484,1437.155316 844.005532,1433.232116 840.469770,1429.595530"/>
    <poly id="1060443562" type="building" color="255,230,230" fill="1" layer="-1.00" shape="812.332569,1434.503539 825.149639,1439.668034 830.998343,1427.009471 817.412438,1422.372392 812.332569,1434.503539"/>
    <poly id="1061003425" type="building" color="255,230,230" fill="1" layer="-1.00" shape="818.152800,1489.550859 827.292576,1496.889983 834.663886,1487.814301 825.487867,1480.441116 818.152800,1489.550859"/>
    <poly id="1061003429" type="building" color="255,230,230" fill="1" layer="-1.00" shape="814.500204,1486.633036 818.152800,1489.550859 825.487867,1480.441116 826.550650,1479.121019 813.557416,1468.748866 804.900992,1471.750164 805.159573,1479.178717 803.587735,1479.666955 801.008308,1491.529244 812.892025,1494.077562 814.500204,1486.633036"/>
    <poly id="1061003430" type="building" color="255,230,230" fill="1" layer="-1.00" shape="875.509283,1480.545686 867.242088,1493.530284 875.356995,1499.960098 883.758816,1486.290418 875.509283,1480.545686"/>
    <poly id="1061358290" type="building" color="255,230,230" fill="1" layer="-1.00" shape="598.226267,1365.619438 611.608247,1373.791428 615.999267,1364.075600 610.809315,1361.757820 613.676104,1355.959861 605.070464,1351.750168 602.212915,1357.548325 598.226267,1365.619438"/>
    <poly id="1061358291" type="building" color="255,230,230" fill="1" layer="-1.00" shape="634.320512,1350.149412 624.814054,1344.844365 621.397699,1352.161918 615.999267,1364.075600 611.608247,1373.791428 633.933323,1384.194146 645.488470,1362.524320 631.315590,1356.798819 634.320512,1350.149412"/>
    <poly id="1061358292" type="building" color="255,230,230" fill="1" layer="-1.00" shape="606.231915,1350.132548 619.099400,1356.418487 624.814054,1344.844365 611.946556,1338.558419 606.231915,1350.132548"/>
    <poly id="1061358293" type="building" color="255,230,230" fill="1" layer="-1.00" shape="617.411338,1325.691901 624.771641,1328.932135 637.216249,1315.014854 627.593366,1306.911211 624.985003,1307.477428 617.411338,1325.691901"/>
    <poly id="1061358294" type="building" color="255,230,230" fill="1" layer="-1.00" shape="627.474579,1332.195958 616.152888,1326.652819 611.451593,1336.184556 622.773508,1341.716599 634.320512,1350.149412 637.756341,1341.911325 627.474579,1332.195958"/>
    <poly id="1061358295" type="building" color="255,230,230" fill="1" layer="-1.00" shape="667.223533,1401.264342 665.000691,1406.321392 674.865905,1410.824081 674.700456,1411.220030 685.517865,1415.698485 686.003364,1415.897381 695.626803,1394.697161 685.071958,1390.035621 680.111755,1398.263646 670.804978,1394.005773 679.415852,1376.556690 677.230114,1375.489654 663.210491,1368.635575 663.152497,1368.756403 646.787110,1360.099613 645.488470,1362.524320 633.933323,1384.194146 651.018441,1393.332156 667.223533,1401.264342"/>
    <poly id="1061358296" type="building" color="255,230,230" fill="1" layer="-1.00" shape="664.409161,1355.645581 672.232863,1346.146610 652.577317,1330.097027 644.744389,1339.595819 664.409161,1355.645581"/>
    <poly id="1061358297" type="building" color="255,230,230" fill="1" layer="-1.00" shape="677.862647,1367.425307 686.037866,1358.344324 674.112044,1347.728662 665.945830,1356.820941 677.862647,1367.425307"/>
    <poly id="1061358298" type="building" color="255,230,230" fill="1" layer="-1.00" shape="683.289337,1365.975568 681.760588,1365.299683 677.230114,1375.489654 689.184896,1380.802155 685.071958,1390.035621 695.626803,1394.697161 699.730045,1385.485686 704.298890,1375.229960 688.422277,1360.502949 683.289337,1365.975568"/>
    <poly id="1061358299" type="building" color="255,230,230" fill="1" layer="-1.00" shape="615.351274,1422.259213 603.112015,1394.127889 621.779643,1406.206393 616.684828,1412.500937 619.101823,1420.984823 615.351274,1422.259213"/>
    <poly id="1061358300" type="building" color="255,230,230" fill="1" layer="-1.00" shape="641.716493,1442.156590 653.638427,1448.145198 654.563972,1446.322871 657.924109,1447.780898 663.252660,1435.677132 658.781962,1433.430011 660.440518,1429.714712 653.437681,1426.615153 651.934166,1429.989762 645.753763,1426.885408 642.128750,1434.021010 645.081823,1435.503711 641.716493,1442.156590"/>
    <poly id="1061358301" type="building" color="255,230,230" fill="1" layer="-1.00" shape="631.110084,1456.978193 648.257717,1464.464260 651.072286,1458.077131 633.924642,1450.591060 631.110084,1456.978193"/>
    <poly id="1062037005" type="amenity" color="237,199,199" fill="1" layer="-1.00" shape="772.174243,1449.032521 778.027460,1454.060705 781.436747,1450.138361 784.376973,1452.663839 787.814674,1448.708812 776.190183,1438.709648 769.342963,1446.598118 772.174243,1449.032521"/>
    <poly id="1062037005#1" type="building" color="255,230,230" fill="1" layer="-1.00" shape="772.174243,1449.032521 778.027460,1454.060705 781.436747,1450.138361 784.376973,1452.663839 787.814674,1448.708812 776.190183,1438.709648 769.342963,1446.598118 772.174243,1449.032521"/>
    <poly id="1062037026" type="building" color="255,230,230" fill="1" layer="-1.00" shape="658.088633,1283.134207 667.536411,1287.284083 675.279668,1269.794454 665.831876,1265.644571 658.088633,1283.134207"/>
    <poly id="1062037027" type="building" color="255,230,230" fill="1" layer="-1.00" shape="650.974447,1308.892403 666.303924,1322.409427 672.402965,1321.062664 681.153045,1299.655332 671.455687,1295.511259 666.371905,1305.212417 656.826719,1301.737323 650.974447,1308.892403"/>
    <poly id="1062037028" type="building" color="255,230,230" fill="1" layer="-1.00" shape="646.557055,1277.464543 656.986589,1282.378583 658.398325,1279.412576 665.371317,1264.702787 654.950769,1259.800025 653.945224,1261.909151 652.206613,1261.106781 651.539095,1262.524021 650.176101,1261.873838 645.661569,1271.309648 647.097979,1271.983575 646.265716,1273.763492 647.949379,1274.542508 646.557055,1277.464543"/>
    <poly id="1062037029" type="building" color="255,230,230" fill="1" layer="-1.00" shape="678.956165,1268.529613 684.306638,1255.394411 667.325940,1249.609488 662.797437,1261.452778 678.956165,1268.529613"/>
    <poly id="1062037031" type="building" color="255,230,230" fill="1" layer="-1.00" shape="678.956165,1268.529613 685.983453,1271.352306 691.619627,1258.689172 684.306638,1255.394411 678.956165,1268.529613"/>
    <poly id="1062037032" type="building" color="255,230,230" fill="1" layer="-1.00" shape="671.117686,1294.017278 681.690709,1297.824804 689.913188,1275.152498 679.330906,1271.344768 671.117686,1294.017278"/>
    <poly id="1062037033" type="building" color="255,230,230" fill="1" layer="-1.00" shape="652.304821,1292.731803 656.218829,1284.603694 645.891360,1279.669622 636.952015,1298.232463 650.974447,1308.892403 659.288565,1298.050105 655.496606,1295.162693 652.304821,1292.731803"/>
    <poly id="1062037034" type="building" color="255,230,230" fill="1" layer="-1.00" shape="696.425030,1315.889655 698.483621,1318.163445 702.653578,1320.215592 715.297673,1290.757442 706.677407,1288.111853 696.425030,1315.889655"/>
    <poly id="1062037035" type="building" color="255,230,230" fill="1" layer="-1.00" shape="692.917280,1323.593606 696.327269,1326.628298 693.340445,1332.856432 700.497383,1340.031426 707.030866,1329.939307 709.234702,1331.461658 712.307821,1326.833145 701.883290,1321.686134 700.729412,1323.381574 697.435587,1320.970701 695.780202,1317.107648 693.430260,1316.813841 692.499477,1319.756728 693.720259,1321.014177 692.917280,1323.593606"/>
    <poly id="1062037036" type="building" color="255,230,230" fill="1" layer="-1.00" shape="680.237628,1337.261741 709.432648,1363.166478 715.777055,1350.218752 709.634583,1347.503513 714.668225,1337.989944 719.594001,1339.691925 725.686257,1326.872020 713.395036,1322.173724 727.269008,1293.107763 737.958410,1297.528083 741.769875,1289.009483 742.914357,1286.448377 734.925469,1282.784211 737.011244,1277.657700 721.533284,1271.161047 719.709784,1275.682840 711.233027,1271.930706 710.070081,1274.491424 705.526834,1272.176177 700.198154,1284.279923 688.220009,1317.202959 684.251831,1329.202336 681.915027,1328.287446 681.337961,1331.981231 682.686546,1332.875221 680.237628,1337.261741"/>
    <poly id="1062037037" type="building" color="255,230,230" fill="1" layer="-1.00" shape="720.978722,1455.505661 755.787783,1467.149202 758.447382,1461.102791 735.392789,1452.004723 738.656977,1444.894806 732.714238,1442.350210 727.601141,1440.333573 720.978722,1455.505661"/>
    <poly id="1062037038" type="building" color="255,230,230" fill="1" layer="-1.00" shape="714.463074,1470.435904 750.017339,1487.032813 755.787783,1467.149202 720.978722,1455.505661 714.463074,1470.435904"/>
    <poly id="1062037039" type="building" color="255,230,230" fill="1" layer="-1.00" shape="707.481619,1486.421492 744.387240,1506.397895 750.017339,1487.032813 714.463074,1470.435904 707.481619,1486.421492"/>
    <poly id="1062037042" type="building" color="255,230,230" fill="1" layer="-1.00" shape="763.036264,1459.946057 769.011183,1464.899140 778.027460,1454.060705 772.174243,1449.032521 763.036264,1459.946057"/>
    <poly id="1063551025" type="building" color="255,230,230" fill="1" layer="-1.00" shape="522.814688,1034.437146 542.060582,1039.304311 545.506379,1025.784823 526.260458,1020.917651 522.814688,1034.437146"/>
    <poly id="1063551026" type="building" color="255,230,230" fill="1" layer="-1.00" shape="530.050877,1000.270870 549.281276,1005.437303 552.778384,992.551359 533.547961,987.384920 530.050877,1000.270870"/>
    <poly id="1063551027" type="building" color="255,230,230" fill="1" layer="-1.00" shape="469.345180,1313.364363 475.720755,1323.418660 468.725158,1336.153046 455.657086,1329.297199 452.962563,1324.757595 469.345180,1313.364363"/>
    <poly id="1063551028" type="building" color="255,230,230" fill="0" layer="-1.00" shape="511.295097,1352.664196 505.767430,1358.894171 525.412447,1373.700490 530.844901,1366.292363"/>
    <poly id="1063551029" type="building" color="255,230,230" fill="1" layer="-1.00" shape="505.767430,1358.894171 497.951648,1353.158957 505.079441,1341.603536 508.823880,1343.679892 512.094496,1338.445227 518.292680,1343.336280 511.295097,1352.664196 505.767430,1358.894171"/>
    <poly id="1063551030" type="building" color="255,230,230" fill="1" layer="-1.00" shape="508.080695,1331.625288 501.180917,1312.272740 512.073661,1307.509807 516.538902,1306.084039 520.446411,1308.751920 526.643194,1323.329547 522.550060,1325.073854 508.080695,1331.625288"/>
    <poly id="1063551031" type="building" color="255,230,230" fill="1" layer="-1.00" shape="468.725158,1336.153046 482.746787,1343.794665 492.384698,1331.948298 475.720755,1323.418660 468.725158,1336.153046"/>
    <poly id="1063551032" type="building" color="255,230,230" fill="1" layer="-1.00" shape="482.746787,1343.794665 497.951648,1353.158957 505.079441,1341.603536 492.384698,1331.948298 482.746787,1343.794665"/>
    <poly id="1102644198" type="building" color="255,230,230" fill="1" layer="-1.00" shape="262.325202,1438.247505 269.939220,1445.664815 265.841108,1449.839089 266.999850,1450.973119 259.039908,1459.071454 250.257914,1450.519930 262.325202,1438.247505"/>
    <poly id="1102644199" type="building" color="255,230,230" fill="1" layer="-1.00" shape="265.404769,1461.757804 275.065034,1451.897850 282.924176,1459.520069 273.254440,1469.390911 265.404769,1461.757804"/>
    <poly id="1102644200" type="building" color="255,230,230" fill="1" layer="-1.00" shape="287.642434,1457.045445 302.782868,1470.335960 300.151712,1473.298462 299.072116,1472.354726 291.812421,1480.545487 282.722533,1472.575504 280.403648,1475.189539 277.854816,1472.938784 282.549405,1467.645339 280.136295,1465.530598 287.642434,1457.045445"/>
    <poly id="1102644201" type="building" color="255,230,230" fill="1" layer="-1.00" shape="252.201215,1408.785473 262.494141,1391.715528 274.182863,1398.697333 263.889687,1415.778357 252.201215,1408.785473"/>
    <poly id="1104198763" type="building" color="255,230,230" fill="1" layer="-1.00" shape="287.481480,1159.543006 296.319891,1151.862667 321.619487,1180.724108 312.781079,1188.404423 287.481480,1159.543006"/>
    <poly id="1104198764" type="building" color="255,230,230" fill="1" layer="-1.00" shape="266.768056,1115.200032 272.250999,1110.211700 290.036410,1129.549666 284.553468,1134.537988 266.768056,1115.200032"/>
    <poly id="1104198771" type="building" color="255,230,230" fill="1" layer="-1.00" shape="280.815192,1226.731263 274.399174,1219.894028 298.376266,1197.587234 304.801521,1204.424680 280.815192,1226.731263"/>
    <poly id="1104198780" type="building" color="255,230,230" fill="1" layer="-1.00" shape="327.969874,1235.316071 319.863263,1242.035400 320.276798,1245.206416 305.700129,1257.281572 308.989350,1256.851693 321.130184,1246.800026 323.668739,1246.476359 335.781184,1260.967898 336.712383,1268.066642 338.343543,1270.020642 338.956822,1274.671611 330.069621,1282.040195 316.431340,1283.805005 307.770499,1273.447388 306.466301,1263.444786 297.381884,1252.578933 296.975939,1249.485748 310.207780,1238.525053 315.759580,1245.155445 316.945502,1245.002946 301.480408,1226.501681 312.775067,1217.142269 327.969874,1235.316071"/>
    <poly id="1104198792" type="building" color="255,230,230" fill="1" layer="-1.00" shape="272.134506,1380.612424 276.340408,1367.830130 285.801476,1370.914709 281.595561,1383.697000 272.134506,1380.612424"/>
    <poly id="1104198797" type="building" color="255,230,230" fill="1" layer="-1.00" shape="288.997898,1423.032311 282.343491,1432.312143 264.091853,1419.333261 277.343373,1400.861133 290.670450,1410.329699 284.063850,1419.532870 288.997898,1423.032311"/>
    <poly id="1104198798" type="building" color="255,230,230" fill="1" layer="-1.00" shape="299.398424,1379.856385 304.916862,1384.999243 293.073788,1397.587034 284.854877,1389.935026 294.816985,1379.349138 297.508226,1381.858104 299.398424,1379.856385"/>
    <poly id="1104198799" type="building" color="255,230,230" fill="1" layer="-1.00" shape="311.070894,1395.048745 311.756645,1395.828828 300.391215,1405.486320 293.804676,1397.979717 304.029914,1388.497872 306.237153,1391.174156 307.530162,1390.324886 309.075786,1390.202172 310.494428,1390.842385 311.419942,1392.082454 311.637229,1393.607158 311.070894,1395.048745"/>
    <poly id="1175621226" type="leisure" color="207,245,201" fill="1" layer="-2.00" shape="388.094659,1147.320208 381.693893,1142.824424 375.559687,1137.957018 369.737751,1132.741146 364.227851,1127.187897 359.397311,1159.918220 365.931631,1155.462542 372.956601,1151.838313 380.387690,1149.110323 388.094659,1147.320208"/>
    <poly id="1175621227" type="leisure" color="207,245,201" fill="1" layer="-2.00" shape="357.845050,1380.479997 376.203453,1381.400235 372.502565,1394.326307 364.830847,1421.149179 363.195373,1426.840053 346.600113,1415.061034 345.242407,1413.723070 344.437795,1412.008432 344.283890,1410.107810 344.489104,1408.702983 351.849486,1384.370068 352.690217,1382.623595 354.104362,1381.288676 355.893993,1380.549759 357.845050,1380.479997"/>
    <poly id="1175621228" type="leisure" color="207,245,201" fill="1" layer="-2.00" shape="338.510055,1435.006821 334.204479,1444.191966 330.961804,1453.798998 328.803074,1463.706310 322.364261,1510.915935 321.563997,1516.435819 320.241969,1522.599337 315.866801,1538.584712 315.763754,1540.402239 316.225839,1541.710197 317.941501,1542.722842 326.218290,1544.561941 327.587070,1538.809954 331.218686,1539.663329 340.102338,1508.383342 336.077330,1507.344127 337.464927,1502.014176 341.407286,1503.029455 350.266202,1472.048538 345.111531,1470.685883 346.978271,1463.668400 352.261774,1465.055967 360.471494,1436.380362 347.083814,1431.537338 344.621430,1431.318913 342.216540,1431.878404 340.110906,1433.143246 338.510055,1435.006821"/>
    <poly id="1175735833" type="leisure" color="207,245,201" fill="1" layer="-2.00" shape="640.950101,1193.916905 649.370221,1186.805014 550.197556,1154.028878 469.673979,1129.403690 468.919979,1130.541720 467.581778,1131.778368 466.039821,1132.600168 464.627535,1132.969783 469.158758,1143.295785 632.466088,1194.436565 634.568193,1195.091276 636.773910,1195.215580 638.935234,1194.817445 640.950101,1193.916905"/>