<?xml version="1.0" encoding="UTF-8"?>

<!-- generated on 2026-06-20 20:59:11.917413 by Eclipse SUMO randomTrips.py v1_26_0+0000-fa7df22d7f1
<configuration>
    <net-file value="rabat.net.xml"/>
    <output-trip-file value="rabat.trips.xml"/>
    <route-file value="rabat.rou.xml"/>
    <prefix value="veh"/>
    <vehicle-class value="passenger"/>
    <fringe-factor value="10"/>
    <end value="1000.0"/>
    <period value="0.7"/>
</configuration>
-->

<!-- generated on 2026-06-20T20:59:11.794224+00:00 by Eclipse SUMO duarouter 1.26.0
<duarouterConfiguration xmlns:xsi="http://www.w3.org/2001/XMLSchema-instance" xsi:noNamespaceSchemaLocation="http://sumo.dlr.de/xsd/duarouterConfiguration.xsd">

    <input>
        <net-file value="rabat.net.xml"/>
        <route-files value="rabat.trips.xml"/>
    </input>

    <output>
        <output-file value="rabat.rou.xml"/>
        <alternatives-output value="NUL"/>
    </output>

    <time>
        <begin value="0"/>
        <end value="1000.0"/>
    </time>

    <report>
        <no-warnings value="true"/>
        <ignore-errors value="true"/>
        <no-step-log value="true"/>
    </report>

</duarouterConfiguration>
-->

<routes xmlns:xsi="http://www.w3.org/2001/XMLSchema-instance" xsi:noNamespaceSchemaLocation="http://sumo.dlr.de/xsd/routes_file.xsd">
    <vType id="veh_passenger" vClass="passenger"/>
    <vehicle id="veh0" type="veh_passenger" depart="0.00">
        <route edges="4061206 852711782#0 852711782#2 1058657648 611284772#0 611284773#0 -590115224#1 -411814332#3 343185249#0 855429447#3 148088778#0 590153356#0 -1093531413"/>
    </vehicle>
    <vehicle id="veh1" type="veh_passenger" depart="0.70">
        <route edges="1175903285 590116711 343185251#0 1390297345 609612250#1 1175903284 35163135#0 611291476#0 -1101929290#1 -4330468#3 1101929292#1 1101528871 609612248#0 -590115224#1 -411814332#3 -411814332#1"/>
    </vehicle>
    <vehicle id="veh2" type="veh_passenger" depart="1.40">
        <route edges="590116711 343185251#0 1390297345 609612250#1 1175903284 35163135#0 611291476#0 -1101929290#1 -4330468#3 1101929292#1 1101528871 744489634 611284774#0 -611284772#1 -1058657648 -852711782#2 -852711782#1 -4061206 852711781 1056990347 4330541#0 4330541#2 4330541#3"/>
    </vehicle>
    <vehicle id="veh3" type="veh_passenger" depart="2.10">
        <route edges="611291479 611291478#0 611291480#0 611291476#0 -1101929290#1 -1101929290#0"/>
    </vehicle>
    <vehicle id="veh4" type="veh_passenger" depart="2.80">
        <route edges="159991541#0 607465230 -852711782#2 -852711782#1 -4061206 590153356#0 -1093531413"/>
    </vehicle>
    <vehicle id="veh5" type="veh_passenger" depart="3.50">
        <route edges="1056988470 -852711781 590153356#0 590153356#5 1279034479 159207429#4 1056990348#0 1391773345 4330541#0 236725334#0"/>
    </vehicle>
    <vehicle id="veh6" type="veh_passenger" depart="4.20">
        <route edges="-343185250#1 590116711 343185251#0 1390297345 609612250#1 1175903284 35163135#0 611291476#0 -1101929290#1 -4330468#3 1101929292#1 1101528871 744489634 611284774#0 -611284772#1 -1058657648 -852711782#2 -852711782#1 -4061206"/>
    </vehicle>
    <vehicle id="veh7" type="veh_passenger" depart="4.90">
        <route edges="411814332#0 411814332#2 590115224#0 609612250#1 1175903284 4060988 264036339#0-AddedOnRampEdge 264036339#0"/>
    </vehicle>
    <vehicle id="veh8" type="veh_passenger" depart="5.60">
        <route edges="1056988470 -852711781 590153356#0 590153356#5 1279034479 159207429#4 1056990348#0 1391773345 4330541#0 4330541#2 35161211#0"/>
    </vehicle>
    <vehicle id="veh9" type="veh_passenger" depart="6.30">
        <route edges="607465230 1058657648 611284772#0 611284773#0 609612250#1 1175903284 35163135#0 611291476#0 -1101929290#1 -4330468#3 1101929292#1 1101528871 744489634 611284774#0 -611284772#1 -1058657648"/>
    </vehicle>
    <vehicle id="veh10" type="veh_passenger" depart="7.00">
        <route edges="607465230 -852711782#2 -852711782#1 -4061206 852711781 1056990347 4330541#0 4330541#2 4330541#3"/>
    </vehicle>
    <vehicle id="veh11" type="veh_passenger" depart="7.70">
        <route edges="156345557#0 -329761812#1"/>
    </vehicle>
    <vehicle id="veh12" type="veh_passenger" depart="8.40">
        <route edges="855429447#0 855429447#3 148088778#0 590153356#0 590153356#5 1279034478"/>
    </vehicle>
    <vehicle id="veh13" type="veh_passenger" depart="9.10">
        <route edges="-456780522 1412111139 156345564#0 1101929292#0 1101929292#1 611291476#0 -1101929290#1 -1101929290#0"/>
    </vehicle>
    <vehicle id="veh14" type="veh_passenger" depart="9.80">
        <route edges="611291476#0 -1101929290#1 -4330468#3 1101929292#1 1101528871 744489634 611284774#0 -611284772#1 -1058657648 -852711782#2 -852711782#1 -4061206 852711781 1056990347 4330541#0 4330541#2 35161211#0"/>
    </vehicle>
    <vehicle id="veh15" type="veh_passenger" depart="10.50">
        <route edges="329761812#0 156345557#1 1101929292#0 1101929292#1 1101528871 744489634 611284774#0 -611284772#1 -1058657648 -852711782#2 -852711782#1 -4061206 852711781 1056990347 725692781#0"/>
    </vehicle>
    <vehicle id="veh16" type="veh_passenger" depart="11.20">
        <route edges="156345557#0 156345557#1 1101929292#0 1101929292#1 1101528871 609612248#0 609612250#1 1175903284 4060988 264036339#0-AddedOnRampEdge 264036339#0 264036339#1"/>
    </vehicle>
    <vehicle id="veh17" type="veh_passenger" depart="11.90">
        <route edges="609612250#1 1175903284 35163135#0 611291476#0 -1101929290#1 -4330468#3 1101929292#1 1101528871 744489634 611284774#0 -611284772#1 -1058657648 -852711782#2 -852711782#1 -4061206 852711781 1056990347 4330541#0 4330541#2 35161211#0"/>
    </vehicle>
    <vehicle id="veh18" type="veh_passenger" depart="12.60">
        <route edges="611291479 611291478#0 611291480#0 1101528871 609612248#0 -590115224#1 -411814332#3 343185249#0"/>
    </vehicle>
    <vehicle id="veh19" type="veh_passenger" depart="13.30">
        <route edges="-411814332#3 -411814332#1"/>
    </vehicle>
    <vehicle id="veh20" type="veh_passenger" depart="14.00">
        <route edges="-456780522 1412111139 156345564#0 1101929292#0 1101929292#1 1101528871 744489634 611284774#0 -611284772#1 -1058657648 -852711782#2 -852711782#1 -4061206 590153356#0 590153356#5 1279034479 159207429#4 607739509 964994835#0 1056988470"/>
    </vehicle>
    <vehicle id="veh21" type="veh_passenger" depart="14.70">
        <route edges="4060998 159207429#4 607739509 592440640#0 1391773344 590153356#0 590153356#5 1279034478"/>
    </vehicle>
    <vehicle id="veh22" type="veh_passenger" depart="15.40">
        <route edges="156345557#0 156345557#1 1101929292#0 1101929292#1 1101528871 609612248#0 -590115224#1 -411814332#3 -411814332#1"/>
    </vehicle>
    <vehicle id="veh23" type="veh_passenger" depart="16.10">
        <route edges="1175903284 35163135#0 611291476#0 -1101929290#1 -4330468#3 1101929292#1 1101528871 744489634 611284774#0 -611284772#1 -1058657648 -852711782#2 -852711782#1 -4061206 852711781 1056990347 725692781#0"/>
    </vehicle>
    <vehicle id="veh24" type="veh_passenger" depart="16.80">
        <route edges="411814332#0 343185249#0 855429447#3 148088778#0 852711781 1056990347 4330541#0 4330541#2 35161211#0"/>
    </vehicle>
    <vehicle id="veh25" type="veh_passenger" depart="17.50">
        <route edges="-725692781#2 -1056990347 -852711781 4061206 852711782#0 852711782#2 1279071648#0"/>
    </vehicle>
    <vehicle id="veh26" type="veh_passenger" depart="18.20">
        <route edges="855429447#0 855429447#3 148088778#0 4061206 852711782#0 852711782#2 1058657648 611284772#0 611284773#0 609612250#1 1175903284 4060988"/>
    </vehicle>
    <vehicle id="veh27" type="veh_passenger" depart="18.90">
        <route edges="343185247 343185251#0 1390297345 609612250#1 1175903284 35163135#0 611291476#0 -1101929290#1 -4330468#3 1101929292#1 1101528871 744489634 611284774#0 -611284772#1 -1058657648 -852711782#2 -852711782#1 -4061206 852711781 1056990347 4330541#0 4330541#2 4330541#3"/>
    </vehicle>
    <vehicle id="veh28" type="veh_passenger" depart="19.60">
        <route edges="611284774#0 -611284772#1 -1058657648 -852711782#2 -852711782#1 -4061206 590153356#0"/>
    </vehicle>
    <vehicle id="veh29" type="veh_passenger" depart="20.30">
        <route edges="1391773344 4061206 852711782#0 852711782#2 1058657648 611284772#0 611284773#0 -590115224#1 -411814332#3 343185249#0 855429447#3 295763787#0 590114919#0 -852711782#1"/>
    </vehicle>
    <vehicle id="veh30" type="veh_passenger" depart="21.00">
        <route edges="-852711782#2 -852711782#1 -4061206 852711781 1056990347 725692781#0"/>
    </vehicle>
    <vehicle id="veh31" type="veh_passenger" depart="21.70">
        <route edges="611291479 611291478#0 611291480#0 611291476#0 -1101929290#1 -4330468#3 1101929292#1"/>
    </vehicle>
    <vehicle id="veh32" type="veh_passenger" depart="22.40">
        <route edges="411814332#0 411814332#2 590115224#0 609612250#1 1175903284 4060988 264036339#0-AddedOnRampEdge 264036339#0 264036339#1 411814337#0 411814337#1 1382275612"/>
    </vehicle>
    <vehicle id="veh33" type="veh_passenger" depart="23.10">
        <route edges="1175903281#0 1058657648 611284772#0 611284773#0 -590115224#1 -411814332#3"/>
    </vehicle>
    <vehicle id="veh34" type="veh_passenger" depart="23.80">
        <route edges="343185249#0 855429447#3 148088778#0 590153356#0 590153356#5 1279034479 159207429#4 607739509 964994835#0 1056988470 -852711781"/>
    </vehicle>
    <vehicle id="veh35" type="veh_passenger" depart="24.50">
        <route edges="4060988 264036339#0-AddedOnRampEdge 264036339#0 1175903285 590116711 343185251#0 1390297345 609612250#1 1175903284 35163135#0 611291476#0 -1101929290#1 -4330468#3 1101929292#1 1101528871 744489634 611284774#0 -611284772#1 -1058657648 -852711782#2 -852711782#1 -4061206 725692057#0 725692602#0"/>
    </vehicle>
    <vehicle id="veh36" type="veh_passenger" depart="25.20">
        <route edges="156345564#0 1101929292#0 1101929292#1 1101528871 609612248#0 -590115224#1 -411814332#3 -411814332#1"/>
    </vehicle>
    <vehicle id="veh37" type="veh_passenger" depart="25.90">
        <route edges="964994835#0 1056988470 -852711781 590153356#0 590153356#5 1279034479 159207429#4 1056990348#0 1391773345 4330541#0 236725334#0"/>
    </vehicle>
    <vehicle id="veh38" type="veh_passenger" depart="26.60">
        <route edges="-456780522 1412111139 156345564#0 1101929292#0 1101929292#1 1101528871 744489634 611284774#0 -611284772#1 -1058657648 -852711782#2 -852711782#1 -4061206 590153356#0 -1093531413"/>
    </vehicle>
    <vehicle id="veh39" type="veh_passenger" depart="27.30">
        <route edges="-456780522 35162952#0"/>
    </vehicle>
    <vehicle id="veh40" type="veh_passenger" depart="28.00">
        <route edges="59969256#0 590153356#5 1279034479 159207429#4 607739509 592440640#0 1391773344 4061206 852711782#0 852711782#2 1058657648 611284772#0 611284773#0 609612250#1 1175903284 4060988 264036339#0-AddedOnRampEdge 264036339#0 264036339#1 411814337#0 411814337#1 1382275612"/>
    </vehicle>
    <vehicle id="veh41" type="veh_passenger" depart="28.70">
        <route edges="-343185250#1 590116711 343185251#0 1390297345 609612250#1 1175903284 35163135#0 611291476#0 -1101929290#1 -4330468#3 1101929292#1 1101528871 744489634 611284774#0 -611284772#1 -1058657648 1279071648#0"/>
    </vehicle>
    <vehicle id="veh42" type="veh_passenger" depart="29.40">
        <route edges="964994835#0 1056988470 -852711781 590153356#0 590153356#5 1279034479 159207429#4 1056990348#0 1391773345 4330541#0 236725334#0"/>
    </vehicle>
    <vehicle id="veh43" type="veh_passenger" depart="30.10">
        <route edges="855429447#0 855429447#3 148088778#0 4061206 852711782#0 852711782#2 1058657648 611284772#0 611284773#0"/>
    </vehicle>
    <vehicle id="veh44" type="veh_passenger" depart="30.80">
        <route edges="411814332#0 343185249#0 855429447#3 148088778#0 852711781 1056990347 4330541#0 236725334#0"/>
    </vehicle>
    <vehicle id="veh45" type="veh_passenger" depart="31.50">
        <route edges="1175903284 35163135#0 611291476#0 -1101929290#1 -4330468#3 1101929292#1 1101528871 609612248#0 -590115224#1 -411814332#3 343185249#0 855429447#3 148088778#0 4061206"/>
    </vehicle>
    <vehicle id="veh46" type="veh_passenger" depart="32.20">
        <route edges="-456780522 1412111139 156345564#0 411814337#1 1382275612"/>
    </vehicle>
    <vehicle id="veh47" type="veh_passenger" depart="32.90">
        <route edges="159991541#0 607465230 -852711782#2 -852711782#1 -4061206 852711781 1056990347 725692781#0"/>
    </vehicle>
    <vehicle id="veh48" type="veh_passenger" depart="33.60">
        <route edges="611291479 611291478#0 611291480#0 1101528871 744489634 611284774#0 -611284772#1 -1058657648 -852711782#2 -852711782#1 -4061206 590153356#0 590153356#5 1279034479 159207429#4 607739509 964994835#0 1056988470 -852711781"/>
    </vehicle>
    <vehicle id="veh49" type="veh_passenger" depart="34.30">
        <route edges="611291480#0 611291476#0"/>
    </vehicle>
    <vehicle id="veh50" type="veh_passenger" depart="35.00">
        <route edges="1390297345 609612250#1 1175903284 4060988"/>
    </vehicle>
    <vehicle id="veh51" type="veh_passenger" depart="35.70">
        <route edges="59969256#0 590153356#5 1279034479 159207429#4 1056990348#0 1391773345 4330541#0 236725334#0"/>
    </vehicle>
    <vehicle id="veh52" type="veh_passenger" depart="36.40">
        <route edges="59969256#0 590153356#5 1279034479 159207429#4 1056990348#0 1391773345 4330541#0 236725334#0"/>
    </vehicle>
    <vehicle id="veh53" type="veh_passenger" depart="37.10">
        <route edges="-1056990347 -852711781 4061206 852711782#0 852711782#2 1058657648 611284772#0 611284773#0 609612250#1 1175903284"/>
    </vehicle>
    <vehicle id="veh54" type="veh_passenger" depart="37.80">
        <route edges="-1175903281#1 609025177 1390297347 -411814332#3 343185249#0 855429447#3 148088778#0 852711781 1056990347 725692781#0"/>
    </vehicle>
    <vehicle id="veh55" type="veh_passenger" depart="38.50">
        <route edges="611291479 611291478#0 611291480#0 1101528871 609612248#0 609612250#1 1175903284 35163135#0 610292115#0"/>
    </vehicle>
    <vehicle id="veh56" type="veh_passenger" depart="39.20">
        <route edges="1390297346 343185247 343185251#0 1390297345 609612250#1 1175903284 35163135#0 611291476#0 -1101929290#1 -1101929290#0"/>
    </vehicle>
    <vehicle id="veh57" type="veh_passenger" depart="39.90">
        <route edges="611291479 611291478#0 611291480#0 1101528871 744489634 611284774#0 -611284772#1 -1058657648 -852711782#2 -852711782#1 -4061206 852711781 1056990347 725692781#0"/>
    </vehicle>
    <vehicle id="veh58" type="veh_passenger" depart="40.60">
        <route edges="-4330468#3 1101929292#1 1101528871 744489634 611284774#0 -611284772#1 -1058657648 -852711782#2 -852711782#1 -4061206 590153356#0 590153356#5 1279034479 159207429#4"/>
    </vehicle>
    <vehicle id="veh59" type="veh_passenger" depart="41.30">
        <route edges="-343185250#1 590116711 343185251#0 1390297345 609612250#1 1175903284 35163135#0 611291476#0 -1101929290#1 -4330468#3 1101929292#1 1101528871 609612248#0 -590115224#1 -411814332#3 343185249#0 855429447#3 295763787#0 590114919#0"/>
    </vehicle>
    <vehicle id="veh60" type="veh_passenger" depart="42.00">
        <route edges="59969256#0 590153356#5 1279034479 159207429#4 607739509 592440640#0 1391773344 4061206 852711782#0 852711782#2 1279071648#0 -159991541#1"/>
    </vehicle>
    <vehicle id="veh61" type="veh_passenger" depart="42.70">
        <route edges="264036339#0 1175903285 590116711 343185251#0 1390297345 609612250#1 1175903284 4060988 264036339#0-AddedOnRampEdge"/>
    </vehicle>
    <vehicle id="veh62" type="veh_passenger" depart="43.40">
        <route edges="159991541#0 607465230 -1175903281#1 609025177 1390297347 -411814332#3 -411814332#1"/>
    </vehicle>
    <vehicle id="veh63" type="veh_passenger" depart="44.10">
        <route edges="329761812#0 156345557#1 159739113#0 456780522"/>
    </vehicle>
    <vehicle id="veh64" type="veh_passenger" depart="44.80">
        <route edges="-852711781 4061206 852711782#0 852711782#2 1058657648 611284772#0 611284773#0 609612250#1 1175903284 35163135#0 611291476#0 -1101929290#1 -4330468#3 1101929292#1"/>
    </vehicle>
    <vehicle id="veh65" type="veh_passenger" depart="45.50">
        <route edges="964994835#0 1056988470 -852711781 4061206 852711782#0 852711782#2 1058657648 611284772#0 611284773#0 609612250#1 1175903284 4060988 264036339#0-AddedOnRampEdge 264036339#0 264036339#1 411814337#0"/>
    </vehicle>
    <vehicle id="veh66" type="veh_passenger" depart="46.20">
        <route edges="159991541#0 607465230 -852711782#2 -852711782#1 -4061206 852711781 1056990347 4330541#0 236725334#0"/>
    </vehicle>
    <vehicle id="veh67" type="veh_passenger" depart="46.90">
        <route edges="-456780522 1412111139 156345564#0 1101929292#0 1101929292#1 1101528871 609612248#0 -590115224#1 -411814332#3 -411814332#1"/>
    </vehicle>
    <vehicle id="veh68" type="veh_passenger" depart="47.60">
        <route edges="156345557#0 156345557#1 1101929292#0 1101929292#1 1101528871 744489634 611284774#0 -611284772#1 -1058657648 -852711782#2 -852711782#1 -4061206 852711781 1056990347 4330541#0 4330541#2 35161211#0"/>
    </vehicle>
    <vehicle id="veh69" type="veh_passenger" depart="48.30">
        <route edges="611291479 611291478#0 611291480#0 611291476#0 -1101929290#1 -1101929290#0"/>
    </vehicle>
    <vehicle id="veh70" type="veh_passenger" depart="49.00">
        <route edges="1101528871 744489634 611284774#0 -611284772#1 -1058657648 -852711782#2 -852711782#1 -4061206 852711781 1056990347 4330541#0 4330541#2"/>
    </vehicle>
    <vehicle id="veh71" type="veh_passenger" depart="49.70">
        <route edges="-852711782#2 -852711782#1 -4061206 590153356#0 590153356#5 1279034479 159207429#4 607739509 592440640#0 1391773344 4061206 852711782#0 852711782#2 1279071648#0 -159991541#1"/>
    </vehicle>
    <vehicle id="veh72" type="veh_passenger" depart="50.40">
        <route edges="852711782#2 -1175903281#1 609025177 1390297347 1390297346 343185247"/>
    </vehicle>
    <vehicle id="veh73" type="veh_passenger" depart="51.10">
        <route edges="264036339#0 1175903285 590116711 343185251#0 1390297345 609612250#1 1175903284 35163135#0 611291476#0 -1101929290#1 -4330468#3 1101929292#1 1101528871 744489634 611284774#0 -611284772#1 -1058657648 -852711782#2 -852711782#1 -4061206 590153356#0 590153356#5 1279034479 159207429#4 607739509 592440640#0"/>
    </vehicle>
    <vehicle id="veh74" type="veh_passenger" depart="51.80">
        <route edges="-456780522 1412111139 156345564#0 411814337#1 1382275612"/>
    </vehicle>
    <vehicle id="veh75" type="veh_passenger" depart="52.50">
        <route edges="590115224#0 609612250#1 1175903284 35163135#0 611291476#0 -1101929290#1 -4330468#3 1101929292#1 1101528871 744489634 611284774#0 -611284772#1 -1058657648 -852711782#2 -852711782#1 -4061206 852711781 1056990347 4330541#0 4330541#2 4330541#3"/>
    </vehicle>
    <vehicle id="veh76" type="veh_passenger" depart="53.20">
        <route edges="855429447#0 855429447#3 148088778#0 4061206 852711782#0 852711782#2 1058657648 611284772#0 611284773#0 609612250#1 1175903284 35163135#0 611291476#0 -1101929290#1"/>
    </vehicle>
    <vehicle id="veh77" type="veh_passenger" depart="53.90">
        <route edges="156345566 312726777 343185251#0 1390297345 609612250#1 1175903284 35163135#0 611291476#0 -1101929290#1 -4330468#3 1101929292#1 1101528871 744489634 611284774#0 -611284772#1 -1058657648 -852711782#2 -852711782#1 -4061206 590153356#0 590153356#5 1279034478"/>
    </vehicle>
    <vehicle id="veh78" type="veh_passenger" depart="54.60">
        <route edges="611291479 611291478#0 611291480#0 1101528871 609612248#0 -590115224#1 -411814332#3"/>
    </vehicle>
    <vehicle id="veh79" type="veh_passenger" depart="55.30">
        <route edges="-725692781#2 -1056990347 -852711781 4061206 852711782#0 852711782#2 -1175903281#1 609025177 1390297347"/>
    </vehicle>
    <vehicle id="veh80" type="veh_passenger" depart="56.00">
        <route edges="159991541#0 607465230 -852711782#2 -852711782#1 -4061206 590153356#0 590153356#5 1279034479 159207429#4 607739509 964994835#0 1056988470"/>
    </vehicle>
    <vehicle id="veh81" type="veh_passenger" depart="56.70">
        <route edges="1101929290#1 160201041#0 1101528871 744489634 611284774#0 -611284772#1 -1058657648 -852711782#2 -852711782#1 -4061206 725692057#0 725692602#0"/>
    </vehicle>
    <vehicle id="veh82" type="veh_passenger" depart="57.40">
        <route edges="159991541#0 607465230 1058657648 611284772#0 611284773#0"/>
    </vehicle>
    <vehicle id="veh83" type="veh_passenger" depart="58.10">
        <route edges="329761812#0 156345557#1 1101929292#0 1101929292#1 1101528871 744489634 611284774#0 -611284772#1 -1058657648 -852711782#2 -852711782#1 -4061206 590153356#0 -1093531413"/>
    </vehicle>
    <vehicle id="veh84" type="veh_passenger" depart="58.80">
        <route edges="964994835#0 1056988470 -852711781 4061206 852711782#0 852711782#2 1058657648 611284772#0 611284773#0 609612250#1 1175903284 35163135#0 610292115#0"/>
    </vehicle>
    <vehicle id="veh85" type="veh_passenger" depart="59.50">
        <route edges="855429447#0 855429447#3 148088778#0 725692057#0 725692602#0"/>
    </vehicle>
    <vehicle id="veh86" type="veh_passenger" depart="60.20">
        <route edges="156345566 312726777 343185251#0 1390297345 609612250#1 1175903284 35163135#0 611291476#0 -1101929290#1 -1101929290#0"/>
    </vehicle>
    <vehicle id="veh87" type="veh_passenger" depart="60.90">
        <route edges="156345557#0 156345557#1 1101929292#0 1101929292#1 1101528871 609612248#0 -590115224#1 -411814332#3 343185249#0 855429447#3 148088778#0 4061206 852711782#0"/>
    </vehicle>
    <vehicle id="veh88" type="veh_passenger" depart="61.60">
        <route edges="1175903281#0 -852711782#2 -852711782#1 -4061206 590153356#0 590153356#5 1279034479 159207429#4 607739509 592440640#0"/>
    </vehicle>
    <vehicle id="veh89" type="veh_passenger" depart="62.30">
        <route edges="159991541#0 607465230 1058657648 611284772#0 611284773#0 609612250#1 1175903284 4060988 264036339#0-AddedOnRampEdge 264036339#0 264036339#1 411814337#0 411814337#1 1382275612"/>
    </vehicle>
    <vehicle id="veh90" type="veh_passenger" depart="63.00">
        <route edges="855429447#0 855429447#3"/>
    </vehicle>
    <vehicle id="veh91" type="veh_passenger" depart="63.70">
        <route edges="-725692781#2 -1056990347 -852711781 4061206 852711782#0 852711782#2 1058657648 611284772#0 611284773#0 609612250#1 1175903284 35163135#0 611291476#0 -1101929290#1 -4330468#3 1101929292#1 1101528871"/>
    </vehicle>
    <vehicle id="veh92" type="veh_passenger" depart="64.40">
        <route edges="855429447#0 855429447#3 295763787#0 295763787#2 609025177 1390297347 1390297346 343185247 343185251#0"/>
    </vehicle>
    <vehicle id="veh93" type="veh_passenger" depart="65.10">
        <route edges="329761812#0 156345557#1 159739113#0 456780522"/>
    </vehicle>
    <vehicle id="veh94" type="veh_passenger" depart="65.80">
        <route edges="-343185250#1 590116711 343185251#0 1390297345 609612250#1 1175903284 35163135#0 611291476#0 -1101929290#1 -4330468#3 1101929292#1 1101528871 744489634 611284774#0 -611284772#1 -1058657648 -852711782#2 -852711782#1 -4061206 852711781 1056990347 4330541#0 4330541#2 35161211#0"/>
    </vehicle>
    <vehicle id="veh95" type="veh_passenger" depart="66.50">
        <route edges="329761812#0 156345557#1 1101929292#0 1101929292#1 610292115#0"/>
    </vehicle>
    <vehicle id="veh96" type="veh_passenger" depart="67.20">
        <route edges="-725692781#2 -1056990347 -852711781 590153356#0 590153356#5 1279034479 159207429#4 1056990348#0 1391773345 725692781#0"/>
    </vehicle>
    <vehicle id="veh97" type="veh_passenger" depart="67.90">
        <route edges="4060998 159207429#4 1056990348#0 1391773345 4330541#0 4330541#2 4330541#3"/>
    </vehicle>
    <vehicle id="veh98" type="veh_passenger" depart="68.60">
        <route edges="1058657648 611284772#0 611284773#0 -590115224#1 -411814332#3 343185249#0 855429447#3 148088778#0 4061206 852711782#0 852711782#2 1279071648#0 -159991541#1"/>
    </vehicle>
    <vehicle id="veh99" type="veh_passenger" depart="69.30">
        <route edges="611291479 611291478#0 611291480#0 1101528871 609612248#0 -590115224#1 -411814332#3"/>
    </vehicle>
    <vehicle id="veh100" type="veh_passenger" depart="70.00">
        <route edges="4060998 159207429#4 1056990348#0 1391773345 4330541#0 4330541#2 35161211#0"/>
    </vehicle>
    <vehicle id="veh101" type="veh_passenger" depart="70.70">
        <route edges="159991541#0 607465230 -852711782#2 -852711782#1 -4061206 852711781 1056990347 4330541#0 4330541#2 35161211#0"/>
    </vehicle>
    <vehicle id="veh102" type="veh_passenger" depart="71.40">
        <route edges="329761812#0 156345557#1 1101929292#0 1101929292#1 1101528871 744489634 611284774#0 -611284772#1 -1058657648 -852711782#2 -852711782#1 -4061206 852711781 1056990347 725692781#0"/>
    </vehicle>
    <vehicle id="veh103" type="veh_passenger" depart="72.10">
        <route edges="1101528871 609612248#0 609612250#1 1175903284 4060988 264036339#0-AddedOnRampEdge 264036339#0 264036339#1 411814337#0 411814337#1 1382275612"/>
    </vehicle>
    <vehicle id="veh104" type="veh_passenger" depart="72.80">
        <route edges="964994835#0"/>
    </vehicle>
    <vehicle id="veh105" type="veh_passenger" depart="73.50">
        <route edges="-4061206 590153356#0 590153356#5 1279034479 159207429#4 607739509 592440640#0 1391773344 4061206 852711782#0 852711782#2 1058657648 611284772#0 611284773#0 -590115224#1 -411814332#3 -411814332#1"/>
    </vehicle>
    <vehicle id="veh106" type="veh_passenger" depart="74.20">
        <route edges="1175903281#0 -852711782#2 -852711782#1 -4061206 852711781 1056990347 725692781#0"/>
    </vehicle>
    <vehicle id="veh107" type="veh_passenger" depart="74.90">
        <route edges="611291479 611291478#0 611291480#0"/>
    </vehicle>
    <vehicle id="veh108" type="veh_passenger" depart="75.60">
        <route edges="156345557#0 -329761812#1"/>
    </vehicle>
    <vehicle id="veh109" type="veh_passenger" depart="76.30">
        <route edges="611284772#0 611284773#0 -590115224#1 -411814332#3 343185249#0 855429447#3 148088778#0 852711781 1056990347 4330541#0 4330541#2 4330541#3"/>
    </vehicle>
    <vehicle id="veh110" type="veh_passenger" depart="77.00">
        <route edges="4060998 159207429#4 607739509 592440640#0 1391773344 4061206 852711782#0 852711782#2"/>
    </vehicle>
    <vehicle id="veh111" type="veh_passenger" depart="77.70">
        <route edges="411814332#0 411814332#2 590115224#0 609612250#1 1175903284 35163135#0 611291476#0 -1101929290#1 -4330468#3 1101929292#1 1101528871 744489634 611284774#0 -611284772#1 -1058657648"/>
    </vehicle>
    <vehicle id="veh112" type="veh_passenger" depart="78.40">
        <route edges="411814332#0 343185249#0 855429447#3 148088778#0 852711781 1056990347 725692781#0"/>
    </vehicle>
    <vehicle id="veh113" type="veh_passenger" depart="79.10">
        <route edges="-456780522 1412111139 156345564#0 1101929292#0 1101929292#1 1101528871 744489634 611284774#0 -611284772#1 -1058657648 1279071648#0 -159991541#1"/>
    </vehicle>
    <vehicle id="veh114" type="veh_passenger" depart="79.80">
        <route edges="-456780522 1412111139 156345564#0 1101929292#0 1101929292#1 1101528871 609612248#0 609612250#1 1175903284 4060988 264036339#0-AddedOnRampEdge 264036339#0 264036339#1"/>
    </vehicle>
    <vehicle id="veh115" type="veh_passenger" depart="80.50">
        <route edges="1175903285 590116711 343185251#0 1390297345 609612250#1 1175903284 35163135#0 611291476#0 -1101929290#1 -4330468#3 1101929292#1 1101528871 744489634 611284774#0 -611284772#1 -1058657648 -852711782#2 -852711782#1 -4061206 852711781 1056990347 4330541#0 4330541#2 35161211#0"/>
    </vehicle>
    <vehicle id="veh116" type="veh_passenger" depart="81.20">
        <route edges="4060998 159207429#4 607739509 964994835#0 1056988470 -852711781"/>
    </vehicle>
    <vehicle id="veh117" type="veh_passenger" depart="81.90">
        <route edges="295763787#0 590114919#0 -852711782#1 -4061206 725692057#0 725692602#0"/>
    </vehicle>
    <vehicle id="veh118" type="veh_passenger" depart="82.60">
        <route edges="611284774#0 611284773#0 609612250#1 1175903284 35163135#0 611291476#0 -1101929290#1 -1101929290#0"/>
    </vehicle>
    <vehicle id="veh119" type="veh_passenger" depart="83.30">
        <route edges="159991541#0 607465230 -852711782#2 -852711782#1 -4061206 590153356#0 590153356#5 1279034479 159207429#4 607739509 964994835#0 1056988470"/>
    </vehicle>
    <vehicle id="veh120" type="veh_passenger" depart="84.00">
        <route edges="-1056990347 -852711781 4061206 852711782#0 852711782#2 1058657648 611284772#0 611284773#0 609612250#1 1175903284 4060988 264036339#0-AddedOnRampEdge 264036339#0 1175903285 590116711"/>
    </vehicle>
    <vehicle id="veh121" type="veh_passenger" depart="84.70">
        <route edges="4061206 852711782#0 852711782#2 1058657648 611284772#0 611284773#0 609612250#1 1175903284 35163135#0 611291476#0 -1101929290#1 -4330468#3 1101929292#1 1101528871 744489634 611284774#0 -611284772#1"/>
    </vehicle>
    <vehicle id="veh122" type="veh_passenger" depart="85.40">
        <route edges="590153356#0 590153356#5 1279034479 159207429#4 607739509 592440640#0 1391773344 4061206 852711782#0 852711782#2 1058657648 611284772#0 611284773#0 609612250#1 1175903284 4060988 264036339#0-AddedOnRampEdge 264036339#0 264036339#1"/>
    </vehicle>
    <vehicle id="veh123" type="veh_passenger" depart="86.10">
        <route edges="159991541#0 607465230 -852711782#2 -852711782#1 -4061206 590153356#0 -1093531413"/>