<?xml version="1.0" encoding="UTF-8"?>

<!-- generated on 2026-06-19T15:29:27.450782+00:00 by Eclipse SUMO netconvert 1.26.0
<netconvertConfiguration xmlns:xsi="http://www.w3.org/2001/XMLSchema-instance" xsi:noNamespaceSchemaLocation="http://sumo.dlr.de/xsd/netconvertConfiguration.xsd">

    <input>
        <node-files value="C:\Users\tahae\AppData\Local\Temp\realnet_2t5d8aqr\p.nod.xml"/>
        <edge-files value="C:\Users\tahae\AppData\Local\Temp\realnet_2t5d8aqr\p.edg.xml"/>
        <connection-files value="C:\Users\tahae\AppData\Local\Temp\realnet_2t5d8aqr\p.con.xml"/>
        <tllogic-files value="C:\Users\tahae\AppData\Local\Temp\realnet_2t5d8aqr\custom.tll.xml"/>
    </input>

    <output>
        <output-file value="envs/T_junction/env.net.xml"/>
    </output>

    <building_defaults>
        <default.sidewalk-width value="2.0"/>
    </building_defaults>

    <pedestrian>
        <sidewalks.guess value="true"/>
        <crossings.guess value="true"/>
        <walkingareas value="true"/>
    </pedestrian>

</netconvertConfiguration>
-->

<net version="1.20" junctionCornerDetail="5" walkingareas="true" limitTurnSpeed="5.50" xmlns:xsi="http://www.w3.org/2001/XMLSchema-instance" xsi:noNamespaceSchemaLocation="http://sumo.dlr.de/xsd/net_file.xsd">

    <location netOffset="76.59,83.81" convBoundary="0.00,0.00,356.21,195.74" origBoundary="-10000000000.00,-10000000000.00,10000000000.00,10000000000.00" projParameter="!"/>

    <edge id=":TL_main_0" function="internal">
        <lane id=":TL_main_0_0" index="0" disallow="pedestrian" speed="6.52" length="4.74" shape="157.27,81.94 159.72,81.59 161.47,80.55 161.59,80.35"/>
    </edge>
    <edge id=":TL_main_1" function="internal">
        <lane id=":TL_main_1_0" index="0" disallow="pedestrian" speed="13.89" length="9.15" shape="157.27,81.94 166.43,81.97"/>
    </edge>
    <edge id=":TL_main_4" function="internal">
        <lane id=":TL_main_4_0" index="0" disallow="pedestrian" speed="6.52" length="4.28" shape="161.59,80.35 162.54,78.81 162.91,76.37"/>
    </edge>
    <edge id=":TL_main_2" function="internal">
        <lane id=":TL_main_2_0" index="0" disallow="pedestrian" speed="13.89" length="9.15" shape="162.84,85.52 162.91,76.37"/>
    </edge>
    <edge id=":TL_main_3" function="internal">
        <lane id=":TL_main_3_0" index="0" disallow="pedestrian" speed="5.34" length="5.77" shape="162.84,85.52 163.06,83.95 163.74,82.84 164.86,82.18 166.43,81.97"/>
    </edge>
    <edge id=":TL_main_c0" function="crossing" crossingEdges="out_S">
        <lane id=":TL_main_c0_0" index="0" allow="pedestrian" speed="2.78" length="3.20" width="4.00" shape="161.29,78.35 164.49,78.38" outlineShape="161.31,76.35 164.51,76.38 164.55,77.60 164.71,78.59 164.97,79.36 165.35,79.92 165.84,80.26 166.44,80.37 164.47,80.38 161.27,80.35 159.16,80.01 159.50,79.90 160.28,79.34 160.84,78.57 161.19,77.57"/>
    </edge>
    <edge id=":TL_main_c1" function="crossing" crossingEdges="edge_E">
        <lane id=":TL_main_c1_0" index="0" allow="pedestrian" speed="2.78" length="3.20" width="4.00" shape="159.27,83.54 159.28,80.34" outlineShape="157.27,83.54 157.28,80.34 158.50,80.23 159.50,79.90 160.28,79.34 160.84,78.57 160.96,78.23 161.28,80.34 161.27,83.54 161.24,85.51 161.13,84.91 160.80,84.42 160.25,84.04 159.48,83.76 158.48,83.59"/>
    </edge>
    <edge id=":TL_main_w0" function="walkingarea">
        <lane id=":TL_main_w0_0" index="0" allow="pedestrian" speed="2.78" length="2.20" width="4.00" shape="166.44,80.37 166.47,78.37 164.51,76.38 164.55,77.60 164.71,78.59 164.97,79.36 165.35,79.92 165.84,80.26"/>
    </edge>
    <edge id=":TL_main_w1" function="walkingarea">
        <lane id=":TL_main_w1_0" index="0" allow="pedestrian" speed="2.78" length="3.30" width="4.00" shape="161.31,76.35 159.31,76.33 157.28,78.34 157.28,80.34 158.50,80.23 159.50,79.90 160.28,79.34 160.84,78.57 161.19,77.57"/>
    </edge>
    <edge id=":TL_main_w2" function="walkingarea">
        <lane id=":TL_main_w2_0" index="0" allow="pedestrian" speed="2.78" length="2.19" width="4.00" shape="157.27,83.54 159.24,85.51 161.24,85.51 161.13,84.91 160.80,84.42 160.25,84.04 159.48,83.76 158.48,83.59"/>
    </edge>

    <edge id="edge_E" from="J10" to="TL_main" priority="-1">
        <lane id="edge_E_0" index="0" allow="pedestrian" speed="13.89" length="157.27" width="2.00" shape="0.01,79.08 157.28,79.34"/>
        <lane id="edge_E_1" index="1" disallow="pedestrian" speed="13.89" length="157.27" shape="0.00,81.68 157.27,81.94"/>
    </edge>
    <edge id="edge_N" from="J7" to="TL_main" priority="-1">
        <lane id="edge_N_0" index="0" allow="pedestrian" speed="13.89" length="110.22" width="2.00" shape="159.98,195.73 160.24,85.51"/>
        <lane id="edge_N_1" index="1" disallow="pedestrian" speed="13.89" length="110.22" shape="162.58,195.74 162.84,85.52"/>
    </edge>
    <edge id="out_E" from="TL_main" to="J11" priority="-1">
        <lane id="out_E_0" index="0" allow="pedestrian" speed="13.89" length="189.81" width="2.00" shape="166.45,79.37 356.26,81.47"/>
        <lane id="out_E_1" index="1" disallow="pedestrian" speed="13.89" length="189.81" shape="166.43,81.97 356.23,84.07"/>
    </edge>
    <edge id="out_S" from="TL_main" to="J9" priority="-1">
        <lane id="out_S_0" index="0" allow="pedestrian" speed="13.89" length="76.39" width="2.00" shape="160.31,76.34 161.04,-0.04"/>
        <lane id="out_S_1" index="1" disallow="pedestrian" speed="13.89" length="76.39" shape="162.91,76.37 163.64,-0.02"/>
    </edge>

    <tlLogic id="TL_main" type="static" programID="0" offset="0">
        <phase duration="42" state="GGrrrr"/>
        <phase duration="3"  state="yyrrrr"/>
        <phase duration="42" state="rrGGrr"/>
        <phase duration="3"  state="rryyrr"/>
    </tlLogic>

    <junction id="J10" type="dead_end" x="0.00" y="83.28" incLanes="" intLanes="" shape="-0.00,83.28 0.01,78.08"/>
    <junction id="J11" type="dead_end" x="356.21" y="85.67" incLanes="out_E_0 out_E_1" intLanes="" shape="356.27,80.47 356.21,85.67"/>
    <junction id="J7" type="dead_end" x="164.18" y="195.74" incLanes="" intLanes="" shape="164.18,195.74 158.98,195.73"/>
    <junction id="J9" type="dead_end" x="165.24" y="0.00" incLanes="out_S_0 out_S_1" intLanes="" shape="160.04,-0.05 165.24,0.00"/>
    <junction id="TL_main" type="traffic_light" x="164.44" y="83.55" incLanes="edge_E_0 edge_E_1 edge_N_0 edge_N_1 :TL_main_w1_0 :TL_main_w2_0" intLanes=":TL_main_4_0 :TL_main_1_0 :TL_main_2_0 :TL_main_3_0 :TL_main_c0_0 :TL_main_c1_0" shape="166.41,83.57 166.47,78.37 165.37,78.14 164.99,77.86 164.72,77.48 164.56,76.98 164.51,76.38 159.31,76.33 159.07,77.45 158.79,77.84 158.40,78.12 157.89,78.28 157.28,78.34 157.27,83.54 158.36,83.76 158.75,84.03 159.02,84.42 159.18,84.91 159.24,85.51 164.44,85.52 164.66,84.43 164.93,84.05 165.31,83.78 165.81,83.62">
        <request index="0" response="110000" foes="110100" cont="1"/>
        <request index="1" response="100000" foes="101100" cont="0"/>
        <request index="2" response="010011" foes="010011" cont="0"/>
        <request index="3" response="000010" foes="000010" cont="0"/>
        <request index="4" response="000000" foes="000101" cont="0"/>
        <request index="5" response="000000" foes="000011" cont="0"/>
    </junction>

    <junction id=":TL_main_4_0" type="internal" x="161.59" y="80.35" incLanes=":TL_main_0_0" intLanes=":TL_main_2_0 :TL_main_c0_0 :TL_main_c1_0"/>

    <connection from="edge_E" to="out_S" fromLane="1" toLane="1" via=":TL_main_0_0" tl="TL_main" linkIndex="0" dir="r" state="o"/>
    <connection from="edge_E" to="out_E" fromLane="1" toLane="1" via=":TL_main_1_0" tl="TL_main" linkIndex="1" dir="s" state="o"/>
    <connection from="edge_N" to="out_S" fromLane="1" toLane="1" via=":TL_main_2_0" tl="TL_main" linkIndex="2" dir="s" state="o"/>
    <connection from="edge_N" to="out_E" fromLane="1" toLane="1" via=":TL_main_3_0" tl="TL_main" linkIndex="3" dir="l" state="o"/>

    <connection from=":TL_main_0" to="out_S" fromLane="0" toLane="1" via=":TL_main_4_0" dir="r" state="m"/>
    <connection from=":TL_main_4" to="out_S" fromLane="0" toLane="1" dir="r" state="m"/>
    <connection from=":TL_main_1" to="out_E" fromLane="0" toLane="1" dir="s" state="M"/>
    <connection from=":TL_main_2" to="out_S" fromLane="0" toLane="1" dir="s" state="M"/>
    <connection from=":TL_main_3" to="out_E" fromLane="0" toLane="1" dir="l" state="M"/>

    <connection from=":TL_main_c0" to=":TL_main_w0" fromLane="0" toLane="0" dir="s" state="M"/>
    <connection from=":TL_main_c1" to=":TL_main_w1" fromLane="0" toLane="0" dir="s" state="M"/>
    <connection from=":TL_main_w0" to="out_E" fromLane="0" toLane="0" dir="s" state="M"/>
    <connection from=":TL_main_w1" to=":TL_main_c0" fromLane="0" toLane="0" tl="TL_main" linkIndex="4" dir="s" state="M"/>
    <connection from=":TL_main_w1" to="out_S" fromLane="0" toLane="0" dir="s" state="M"/>
    <connection from="edge_E" to=":TL_main_w1" fromLane="0" toLane="0" dir="s" state="M"/>
    <connection from=":TL_main_w2" to=":TL_main_c1" fromLane="0" toLane="0" tl="TL_main" linkIndex="5" dir="s" state="M"/>
    <connection from="edge_N" to=":TL_main_w2" fromLane="0" toLane="0" dir="s" state="M"/>
</net>
