<routes>
    <vType id="car" guiShape="passenger" color="210,60,60" accel="2.6" decel="4.5" sigma="0.5" length="5" maxSpeed="70"/>
    <vType id="car_b" guiShape="passenger" color="60,110,210" accel="2.6" decel="4.5" sigma="0.5" length="5" maxSpeed="70"/>

    <route id="r_n" edges="edge_N out_S"/>
    <route id="r_e" edges="edge_E out_E"/>

    <flow id="f_n" type="car" route="r_n" begin="0" end="3600" period="3"/>
    <flow id="f_e" type="car_b" route="r_e" begin="0" end="3600" period="3"/>
</routes>
