<configuration>
    <input>
        <net-file value="env.net.xml"/>
        <route-files value="env.rou.xml"/>
    </input>
    <gui_only>
        <gui-settings-file value="../gui_settings.xml"/>
    </gui_only>
</configuration>