<configuration>
    <input>
        <net-file value="env.net.xml"/>
        <route-files value="env.rou.xml"/>
    </input>
</configuration>