<?xml version="1.0" encoding="UTF-8"?>
<additional>
    <poly id="ground" type="ground" color="223,226,221" fill="1" layer="-10" shape="-35.0,-35.0 391.2,-35.0 391.2,230.7 -35.0,230.7 -35.0,-35.0"/>
    <poly id="bldg_0" type="building" color="199,190,178" fill="1" layer="-5" shape="-29.7,-32.1 -15.2,-32.1 -15.2,-17.7 -29.7,-17.7 -29.7,-32.1"/>
    <poly id="park_1" type="park" color="168,200,148" fill="1" layer="-6" shape="-29.8,-5.7 -14.2,-5.7 -14.2,8.0 -29.8,8.0 -29.8,-5.7"/>
    <poly id="bldg_2" type="building" color="208,200,186" fill="1" layer="-5" shape="-30.1,15.2 -15.8,15.2 -15.8,31.0 -30.1,31.0 -30.1,15.2"/>
    <poly id="bldg_3" type="building" color="212,198,182" fill="1" layer="-5" shape="-31.5,40.0 -14.9,40.0 -14.9,56.2 -31.5,56.2 -31.5,40.0"/>
    <poly id="park_4" type="park" color="168,200,148" fill="1" layer="-6" shape="-32.1,64.2 -15.2,64.2 -15.2,79.0 -32.1,79.0 -32.1,64.2"/>
    <poly id="bldg_5" type="building" color="196,188,176" fill="1" layer="-5" shape="-30.8,89.5 -16.3,89.5 -16.3,103.2 -30.8,103.2 -30.8,89.5"/>
    <poly id="bldg_6" type="building" color="184,176,164" fill="1" layer="-5" shape="-28.8,112.3 -13.4,112.3 -13.4,128.7 -28.8,128.7 -28.8,112.3"/>
    <poly id="bldg_7" type="building" color="196,188,176" fill="1" layer="-5" shape="-29.6,138.6 -15.8,138.6 -15.8,153.0 -29.6,153.0 -29.6,138.6"/>
    <poly id="bldg_8" type="building" color="208,200,186" fill="1" layer="-5" shape="-29.0,162.9 -14.1,162.9 -14.1,178.0 -29.0,178.0 -29.0,162.9"/>
    <poly id="bldg_9" type="building" color="175,167,155" fill="1" layer="-5" shape="-30.8,183.4 -16.3,183.4 -16.3,200.2 -30.8,200.2 -30.8,183.4"/>
    <poly id="bldg_10" type="building" color="199,190,178" fill="1" layer="-5" shape="-29.7,209.6 -15.2,209.6 -15.2,224.7 -29.7,224.7 -29.7,209.6"/>
    <poly id="park_11" type="park" color="168,200,148" fill="1" layer="-6" shape="-5.6,-32.2 9.1,-32.2 9.1,-16.0 -5.6,-16.0 -5.6,-32.2"/>
    <poly id="bldg_12" type="building" color="199,190,178" fill="1" layer="-5" shape="-4.7,-7.7 9.1,-7.7 9.1,9.0 -4.7,9.0 -4.7,-7.7"/>
    <poly id="bldg_13" type="building" color="184,176,164" fill="1" layer="-5" shape="-7.2,17.3 7.7,17.3 7.7,34.0 -7.2,34.0 -7.2,17.3"/>
    <poly id="bldg_14" type="building" color="175,167,155" fill="1" layer="-5" shape="-8.2,41.9 7.3,41.9 7.3,58.0 -8.2,58.0 -8.2,41.9"/>
    <poly id="park_15" type="park" color="168,200,148" fill="1" layer="-6" shape="-4.0,90.2 9.9,90.2 9.9,103.9 -4.0,103.9 -4.0,90.2"/>
    <poly id="bldg_16" type="building" color="175,167,155" fill="1" layer="-5" shape="-4.7,113.2 9.1,113.2 9.1,128.1 -4.7,128.1 -4.7,113.2"/>
    <poly id="park_17" type="park" color="152,190,138" fill="1" layer="-6" shape="-8.4,137.3 8.4,137.3 8.4,153.2 -8.4,153.2 -8.4,137.3"/>
    <poly id="park_18" type="park" color="152,190,138" fill="1" layer="-6" shape="-5.2,161.3 9.4,161.3 9.4,175.4 -5.2,175.4 -5.2,161.3"/>
    <poly id="bldg_19" type="building" color="199,190,178" fill="1" layer="-5" shape="-4.8,187.1 10.6,187.1 10.6,201.0 -4.8,201.0 -4.8,187.1"/>
    <poly id="bldg_20" type="building" color="175,167,155" fill="1" layer="-5" shape="-6.4,208.7 8.5,208.7 8.5,222.9 -6.4,222.9 -6.4,208.7"/>
    <poly id="bldg_21" type="building" color="184,176,164" fill="1" layer="-5" shape="19.0,-29.6 34.3,-29.6 34.3,-15.6 19.0,-15.6 19.0,-29.6"/>
    <poly id="bldg_22" type="building" color="196,188,176" fill="1" layer="-5" shape="16.2,-7.0 31.7,-7.0 31.7,6.9 16.2,6.9 16.2,-7.0"/>
    <poly id="bldg_23" type="building" color="208,200,186" fill="1" layer="-5" shape="19.9,17.2 33.9,17.2 33.9,33.1 19.9,33.1 19.9,17.2"/>
    <poly id="bldg_24" type="building" color="199,190,178" fill="1" layer="-5" shape="16.5,43.3 31.6,43.3 31.6,57.6 16.5,57.6 16.5,43.3"/>
    <poly id="bldg_25" type="building" color="208,200,186" fill="1" layer="-5" shape="17.2,89.4 32.0,89.4 32.0,106.0 17.2,106.0 17.2,89.4"/>
    <poly id="bldg_26" type="building" color="196,188,176" fill="1" layer="-5" shape="16.1,113.2 31.7,113.2 31.7,127.5 16.1,127.5 16.1,113.2"/>
    <poly id="bldg_27" type="building" color="175,167,155" fill="1" layer="-5" shape="18.9,136.4 32.7,136.4 32.7,150.1 18.9,150.1 18.9,136.4"/>
    <poly id="bldg_28" type="building" color="175,167,155" fill="1" layer="-5" shape="16.8,162.7 31.1,162.7 31.1,176.7 16.8,176.7 16.8,162.7"/>
    <poly id="park_29" type="park" color="152,190,138" fill="1" layer="-6" shape="17.7,184.5 32.9,184.5 32.9,199.5 17.7,199.5 17.7,184.5"/>
    <poly id="bldg_30" type="building" color="199,190,178" fill="1" layer="-5" shape="16.1,209.8 32.7,209.8 32.7,223.5 16.1,223.5 16.1,209.8"/>
    <poly id="bldg_31" type="building" color="208,200,186" fill="1" layer="-5" shape="40.0,-31.7 54.8,-31.7 54.8,-15.1 40.0,-15.1 40.0,-31.7"/>
    <poly id="bldg_32" type="building" color="196,188,176" fill="1" layer="-5" shape="42.0,-8.0 56.3,-8.0 56.3,7.1 42.0,7.1 42.0,-8.0"/>
    <poly id="bldg_33" type="building" color="196,188,176" fill="1" layer="-5" shape="41.0,19.6 56.5,19.6 56.5,33.3 41.0,33.3 41.0,19.6"/>
    <poly id="bldg_34" type="building" color="208,200,186" fill="1" layer="-5" shape="42.6,43.6 59.1,43.6 59.1,57.8 42.6,57.8 42.6,43.6"/>
    <poly id="bldg_35" type="building" color="199,190,178" fill="1" layer="-5" shape="40.4,115.4 56.7,115.4 56.7,130.0 40.4,130.0 40.4,115.4"/>
    <poly id="bldg_36" type="building" color="196,188,176" fill="1" layer="-5" shape="43.0,138.2 59.0,138.2 59.0,152.3 43.0,152.3 43.0,138.2"/>
    <poly id="bldg_37" type="building" color="175,167,155" fill="1" layer="-5" shape="41.2,162.3 57.4,162.3 57.4,176.1 41.2,176.1 41.2,162.3"/>
    <poly id="bldg_38" type="building" color="196,188,176" fill="1" layer="-5" shape="43.8,185.5 57.6,185.5 57.6,200.8 43.8,200.8 43.8,185.5"/>
    <poly id="bldg_39" type="building" color="208,200,186" fill="1" layer="-5" shape="42.2,210.7 56.6,210.7 56.6,224.7 42.2,224.7 42.2,210.7"/>
    <poly id="bldg_40" type="building" color="184,176,164" fill="1" layer="-5" shape="66.4,-32.8 80.3,-32.8 80.3,-16.9 66.4,-16.9 66.4,-32.8"/>
    <poly id="bldg_41" type="building" color="199,190,178" fill="1" layer="-5" shape="66.7,-7.4 82.8,-7.4 82.8,7.0 66.7,7.0 66.7,-7.4"/>
    <poly id="park_42" type="park" color="168,200,148" fill="1" layer="-6" shape="65.2,16.4 82.0,16.4 82.0,33.2 65.2,33.2 65.2,16.4"/>
    <poly id="bldg_43" type="building" color="208,200,186" fill="1" layer="-5" shape="64.0,39.5 78.5,39.5 78.5,56.2 64.0,56.2 64.0,39.5"/>
    <poly id="bldg_44" type="building" color="196,188,176" fill="1" layer="-5" shape="66.5,89.3 82.2,89.3 82.2,106.3 66.5,106.3 66.5,89.3"/>
    <poly id="bldg_45" type="building" color="184,176,164" fill="1" layer="-5" shape="65.3,114.2 82.1,114.2 82.1,128.2 65.3,128.2 65.3,114.2"/>
    <poly id="bldg_46" type="building" color="199,190,178" fill="1" layer="-5" shape="63.7,136.2 79.2,136.2 79.2,150.7 63.7,150.7 63.7,136.2"/>
    <poly id="bldg_47" type="building" color="196,188,176" fill="1" layer="-5" shape="64.1,162.1 80.6,162.1 80.6,177.4 64.1,177.4 64.1,162.1"/>
    <poly id="bldg_48" type="building" color="199,190,178" fill="1" layer="-5" shape="64.1,185.9 78.6,185.9 78.6,199.5 64.1,199.5 64.1,185.9"/>
    <poly id="bldg_49" type="building" color="196,188,176" fill="1" layer="-5" shape="67.4,207.6 82.5,207.6 82.5,223.6 67.4,223.6 67.4,207.6"/>
    <poly id="bldg_50" type="building" color="175,167,155" fill="1" layer="-5" shape="87.0,-29.2 103.6,-29.2 103.6,-13.7 87.0,-13.7 87.0,-29.2"/>
    <poly id="bldg_51" type="building" color="196,188,176" fill="1" layer="-5" shape="90.3,-6.7 104.1,-6.7 104.1,8.1 90.3,8.1 90.3,-6.7"/>
    <poly id="bldg_52" type="building" color="212,198,182" fill="1" layer="-5" shape="91.4,16.9 105.8,16.9 105.8,30.8 91.4,30.8 91.4,16.9"/>
    <poly id="bldg_53" type="building" color="208,200,186" fill="1" layer="-5" shape="90.5,42.8 107.3,42.8 107.3,57.2 90.5,57.2 90.5,42.8"/>
    <poly id="bldg_54" type="building" color="199,190,178" fill="1" layer="-5" shape="90.5,114.0 107.0,114.0 107.0,130.4 90.5,130.4 90.5,114.0"/>
    <poly id="bldg_55" type="building" color="212,198,182" fill="1" layer="-5" shape="87.2,139.3 103.7,139.3 103.7,153.7 87.2,153.7 87.2,139.3"/>
    <poly id="bldg_56" type="building" color="212,198,182" fill="1" layer="-5" shape="88.1,163.1 104.7,163.1 104.7,177.5 88.1,177.5 88.1,163.1"/>
    <poly id="bldg_57" type="building" color="212,198,182" fill="1" layer="-5" shape="87.9,187.2 104.8,187.2 104.8,201.7 87.9,201.7 87.9,187.2"/>
    <poly id="bldg_58" type="building" color="184,176,164" fill="1" layer="-5" shape="90.4,211.5 105.1,211.5 105.1,225.2 90.4,225.2 90.4,211.5"/>
    <poly id="bldg_59" type="building" color="199,190,178" fill="1" layer="-5" shape="112.5,-28.1 127.0,-28.1 127.0,-14.2 112.5,-14.2 112.5,-28.1"/>
    <poly id="bldg_60" type="building" color="208,200,186" fill="1" layer="-5" shape="113.7,-6.3 130.6,-6.3 130.6,7.7 113.7,7.7 113.7,-6.3"/>
    <poly id="bldg_61" type="building" color="199,190,178" fill="1" layer="-5" shape="113.2,17.5 126.8,17.5 126.8,34.2 113.2,34.2 113.2,17.5"/>
    <poly id="bldg_62" type="building" color="184,176,164" fill="1" layer="-5" shape="115.6,42.4 129.9,42.4 129.9,57.5 115.6,57.5 115.6,42.4"/>
    <poly id="bldg_63" type="building" color="199,190,178" fill="1" layer="-5" shape="111.8,90.7 127.2,90.7 127.2,106.5 111.8,106.5 111.8,90.7"/>
    <poly id="bldg_64" type="building" color="208,200,186" fill="1" layer="-5" shape="112.7,111.1 127.7,111.1 127.7,127.9 112.7,127.9 112.7,111.1"/>
    <poly id="bldg_65" type="building" color="212,198,182" fill="1" layer="-5" shape="113.7,137.4 129.2,137.4 129.2,151.0 113.7,151.0 113.7,137.4"/>
    <poly id="bldg_66" type="building" color="175,167,155" fill="1" layer="-5" shape="114.8,161.9 129.5,161.9 129.5,177.0 114.8,177.0 114.8,161.9"/>
    <poly id="park_67" type="park" color="152,190,138" fill="1" layer="-6" shape="112.7,187.5 129.0,187.5 129.0,201.7 112.7,201.7 112.7,187.5"/>
    <poly id="bldg_68" type="building" color="208,200,186" fill="1" layer="-5" shape="112.2,211.5 126.6,211.5 126.6,226.1 112.2,226.1 112.2,211.5"/>
    <poly id="park_69" type="park" color="152,190,138" fill="1" layer="-6" shape="135.5,-32.3 150.7,-32.3 150.7,-15.8 135.5,-15.8 135.5,-32.3"/>
    <poly id="bldg_70" type="building" color="212,198,182" fill="1" layer="-5" shape="135.8,209.1 151.2,209.1 151.2,224.6 135.8,224.6 135.8,209.1"/>
    <poly id="bldg_71" type="building" color="208,200,186" fill="1" layer="-5" shape="161.8,-30.3 177.1,-30.3 177.1,-13.9 161.8,-13.9 161.8,-30.3"/>
    <poly id="bldg_72" type="building" color="212,198,182" fill="1" layer="-5" shape="159.5,209.1 175.0,209.1 175.0,224.1 159.5,224.1 159.5,209.1"/>
    <poly id="bldg_73" type="building" color="175,167,155" fill="1" layer="-5" shape="184.1,-28.8 201.0,-28.8 201.0,-15.1 184.1,-15.1 184.1,-28.8"/>
    <poly id="bldg_74" type="building" color="212,198,182" fill="1" layer="-5" shape="185.1,-9.1 199.9,-9.1 199.9,7.1 185.1,7.1 185.1,-9.1"/>
    <poly id="bldg_75" type="building" color="184,176,164" fill="1" layer="-5" shape="185.0,17.6 201.3,17.6 201.3,34.3 185.0,34.3 185.0,17.6"/>
    <poly id="bldg_76" type="building" color="208,200,186" fill="1" layer="-5" shape="185.4,39.2 200.1,39.2 200.1,55.1 185.4,55.1 185.4,39.2"/>
    <poly id="bldg_77" type="building" color="212,198,182" fill="1" layer="-5" shape="186.7,114.4 202.6,114.4 202.6,128.3 186.7,128.3 186.7,114.4"/>
    <poly id="bldg_78" type="building" color="212,198,182" fill="1" layer="-5" shape="184.4,136.5 199.1,136.5 199.1,151.6 184.4,151.6 184.4,136.5"/>
    <poly id="bldg_79" type="building" color="199,190,178" fill="1" layer="-5" shape="184.6,162.6 199.6,162.6 199.6,179.0 184.6,179.0 184.6,162.6"/>
    <poly id="bldg_80" type="building" color="199,190,178" fill="1" layer="-5" shape="185.8,187.1 200.6,187.1 200.6,202.9 185.8,202.9 185.8,187.1"/>
    <poly id="bldg_81" type="building" color="208,200,186" fill="1" layer="-5" shape="183.9,206.9 198.4,206.9 198.4,223.4 183.9,223.4 183.9,206.9"/>
    <poly id="bldg_82" type="building" color="184,176,164" fill="1" layer="-5" shape="207.7,-29.5 223.3,-29.5 223.3,-15.2 207.7,-15.2 207.7,-29.5"/>
    <poly id="bldg_83" type="building" color="184,176,164" fill="1" layer="-5" shape="207.6,-5.6 223.7,-5.6 223.7,8.4 207.6,8.4 207.6,-5.6"/>
    <poly id="bldg_84" type="building" color="212,198,182" fill="1" layer="-5" shape="208.1,15.2 222.8,15.2 222.8,31.1 208.1,31.1 208.1,15.2"/>
    <poly id="bldg_85" type="building" color="199,190,178" fill="1" layer="-5" shape="211.0,39.6 226.6,39.6 226.6,56.0 211.0,56.0 211.0,39.6"/>
    <poly id="bldg_86" type="building" color="175,167,155" fill="1" layer="-5" shape="211.5,114.6 226.3,114.6 226.3,129.7 211.5,129.7 211.5,114.6"/>
    <poly id="bldg_87" type="building" color="184,176,164" fill="1" layer="-5" shape="210.1,135.4 225.1,135.4 225.1,150.7 210.1,150.7 210.1,135.4"/>
    <poly id="bldg_88" type="building" color="199,190,178" fill="1" layer="-5" shape="209.5,162.8 225.5,162.8 225.5,177.9 209.5,177.9 209.5,162.8"/>
    <poly id="bldg_89" type="building" color="199,190,178" fill="1" layer="-5" shape="208.4,186.6 223.8,186.6 223.8,201.9 208.4,201.9 208.4,186.6"/>
    <poly id="bldg_90" type="building" color="212,198,182" fill="1" layer="-5" shape="210.2,207.9 224.6,207.9 224.6,224.7 210.2,224.7 210.2,207.9"/>
    <poly id="park_91" type="park" color="152,190,138" fill="1" layer="-6" shape="232.1,-30.6 247.8,-30.6 247.8,-15.7 232.1,-15.7 232.1,-30.6"/>
    <poly id="bldg_92" type="building" color="199,190,178" fill="1" layer="-5" shape="231.6,-7.5 247.9,-7.5 247.9,7.2 231.6,7.2 231.6,-7.5"/>
    <poly id="bldg_93" type="building" color="212,198,182" fill="1" layer="-5" shape="234.8,18.1 250.2,18.1 250.2,32.3 234.8,32.3 234.8,18.1"/>
    <poly id="bldg_94" type="building" color="196,188,176" fill="1" layer="-5" shape="233.0,42.1 248.9,42.1 248.9,57.9 233.0,57.9 233.0,42.1"/>
    <poly id="bldg_95" type="building" color="184,176,164" fill="1" layer="-5" shape="233.6,113.4 249.0,113.4 249.0,128.4 233.6,128.4 233.6,113.4"/>
    <poly id="bldg_96" type="building" color="184,176,164" fill="1" layer="-5" shape="233.1,137.6 247.7,137.6 247.7,152.0 233.1,152.0 233.1,137.6"/>
    <poly id="bldg_97" type="building" color="212,198,182" fill="1" layer="-5" shape="231.4,162.0 247.6,162.0 247.6,176.3 231.4,176.3 231.4,162.0"/>
    <poly id="bldg_98" type="building" color="208,200,186" fill="1" layer="-5" shape="232.0,185.5 248.2,185.5 248.2,201.2 232.0,201.2 232.0,185.5"/>
    <poly id="bldg_99" type="building" color="196,188,176" fill="1" layer="-5" shape="232.9,208.4 247.5,208.4 247.5,224.4 232.9,224.4 232.9,208.4"/>
    <poly id="bldg_100" type="building" color="212,198,182" fill="1" layer="-5" shape="258.9,-29.8 274.9,-29.8 274.9,-15.8 258.9,-15.8 258.9,-29.8"/>
    <poly id="bldg_101" type="building" color="196,188,176" fill="1" layer="-5" shape="256.1,-8.6 270.7,-8.6 270.7,6.7 256.1,6.7 256.1,-8.6"/>
    <poly id="bldg_102" type="building" color="175,167,155" fill="1" layer="-5" shape="257.0,19.5 271.0,19.5 271.0,33.4 257.0,33.4 257.0,19.5"/>
    <poly id="bldg_103" type="building" color="208,200,186" fill="1" layer="-5" shape="258.5,39.5 272.6,39.5 272.6,55.0 258.5,55.0 258.5,39.5"/>
    <poly id="bldg_104" type="building" color="212,198,182" fill="1" layer="-5" shape="258.2,90.5 272.6,90.5 272.6,105.9 258.2,105.9 258.2,90.5"/>
    <poly id="park_105" type="park" color="168,200,148" fill="1" layer="-6" shape="256.7,113.6 271.7,113.6 271.7,129.1 256.7,129.1 256.7,113.6"/>
    <poly id="bldg_106" type="building" color="208,200,186" fill="1" layer="-5" shape="259.6,135.9 273.9,135.9 273.9,151.8 259.6,151.8 259.6,135.9"/>
    <poly id="bldg_107" type="building" color="196,188,176" fill="1" layer="-5" shape="257.7,159.7 272.7,159.7 272.7,175.6 257.7,175.6 257.7,159.7"/>
    <poly id="bldg_108" type="building" color="184,176,164" fill="1" layer="-5" shape="255.9,186.3 271.9,186.3 271.9,201.4 255.9,201.4 255.9,186.3"/>
    <poly id="bldg_109" type="building" color="175,167,155" fill="1" layer="-5" shape="258.2,209.1 274.1,209.1 274.1,225.9 258.2,225.9 258.2,209.1"/>
    <poly id="park_110" type="park" color="152,190,138" fill="1" layer="-6" shape="280.6,-31.4 295.2,-31.4 295.2,-17.4 280.6,-17.4 280.6,-31.4"/>
    <poly id="bldg_111" type="building" color="184,176,164" fill="1" layer="-5" shape="281.0,-5.2 297.7,-5.2 297.7,9.8 281.0,9.8 281.0,-5.2"/>
    <poly id="park_112" type="park" color="168,200,148" fill="1" layer="-6" shape="282.1,19.1 297.4,19.1 297.4,34.4 282.1,34.4 282.1,19.1"/>
    <poly id="bldg_113" type="building" color="199,190,178" fill="1" layer="-5" shape="282.7,43.1 298.4,43.1 298.4,56.8 282.7,56.8 282.7,43.1"/>
    <poly id="park_114" type="park" color="168,200,148" fill="1" layer="-6" shape="282.9,91.7 298.7,91.7 298.7,106.3 282.9,106.3 282.9,91.7"/>
    <poly id="bldg_115" type="building" color="199,190,178" fill="1" layer="-5" shape="280.5,114.5 297.2,114.5 297.2,128.7 280.5,128.7 280.5,114.5"/>
    <poly id="bldg_116" type="building" color="196,188,176" fill="1" layer="-5" shape="282.7,139.4 297.9,139.4 297.9,154.4 282.7,154.4 282.7,139.4"/>
    <poly id="bldg_117" type="building" color="175,167,155" fill="1" layer="-5" shape="282.5,161.0 298.4,161.0 298.4,175.6 282.5,175.6 282.5,161.0"/>
    <poly id="bldg_118" type="building" color="175,167,155" fill="1" layer="-5" shape="279.9,184.4 294.4,184.4 294.4,198.3 279.9,198.3 279.9,184.4"/>
    <poly id="park_119" type="park" color="152,190,138" fill="1" layer="-6" shape="282.0,207.4 298.6,207.4 298.6,222.6 282.0,222.6 282.0,207.4"/>
    <poly id="bldg_120" type="building" color="208,200,186" fill="1" layer="-5" shape="305.9,-29.9 321.0,-29.9 321.0,-16.1 305.9,-16.1 305.9,-29.9"/>
    <poly id="bldg_121" type="building" color="175,167,155" fill="1" layer="-5" shape="306.7,-6.3 322.7,-6.3 322.7,7.8 306.7,7.8 306.7,-6.3"/>
    <poly id="bldg_122" type="building" color="208,200,186" fill="1" layer="-5" shape="306.9,19.0 321.5,19.0 321.5,32.7 306.9,32.7 306.9,19.0"/>
    <poly id="bldg_123" type="building" color="212,198,182" fill="1" layer="-5" shape="307.4,43.7 322.6,43.7 322.6,57.7 307.4,57.7 307.4,43.7"/>
    <poly id="bldg_124" type="building" color="175,167,155" fill="1" layer="-5" shape="305.4,113.8 320.5,113.8 320.5,127.9 305.4,127.9 305.4,113.8"/>
    <poly id="bldg_125" type="building" color="212,198,182" fill="1" layer="-5" shape="304.8,139.2 321.3,139.2 321.3,153.8 304.8,153.8 304.8,139.2"/>
    <poly id="bldg_126" type="building" color="175,167,155" fill="1" layer="-5" shape="305.1,163.3 319.6,163.3 319.6,177.0 305.1,177.0 305.1,163.3"/>
    <poly id="bldg_127" type="building" color="184,176,164" fill="1" layer="-5" shape="305.0,186.1 321.6,186.1 321.6,201.2 305.0,201.2 305.0,186.1"/>
    <poly id="bldg_128" type="building" color="199,190,178" fill="1" layer="-5" shape="305.6,209.8 320.8,209.8 320.8,224.5 305.6,224.5 305.6,209.8"/>
    <poly id="bldg_129" type="building" color="212,198,182" fill="1" layer="-5" shape="327.7,-31.0 344.2,-31.0 344.2,-16.0 327.7,-16.0 327.7,-31.0"/>
    <poly id="bldg_130" type="building" color="208,200,186" fill="1" layer="-5" shape="330.4,-5.7 345.3,-5.7 345.3,10.2 330.4,10.2 330.4,-5.7"/>
    <poly id="bldg_131" type="building" color="212,198,182" fill="1" layer="-5" shape="329.3,15.3 344.6,15.3 344.6,31.0 329.3,31.0 329.3,15.3"/>
    <poly id="bldg_132" type="building" color="208,200,186" fill="1" layer="-5" shape="328.6,43.6 342.2,43.6 342.2,57.7 328.6,57.7 328.6,43.6"/>
    <poly id="bldg_133" type="building" color="184,176,164" fill="1" layer="-5" shape="329.2,111.4 343.9,111.4 343.9,127.3 329.2,127.3 329.2,111.4"/>
    <poly id="bldg_134" type="building" color="208,200,186" fill="1" layer="-5" shape="329.9,138.8 345.1,138.8 345.1,154.3 329.9,154.3 329.9,138.8"/>
    <poly id="bldg_135" type="building" color="196,188,176" fill="1" layer="-5" shape="329.0,162.6 346.0,162.6 346.0,178.8 329.0,178.8 329.0,162.6"/>
    <poly id="bldg_136" type="building" color="196,188,176" fill="1" layer="-5" shape="331.1,186.7 345.0,186.7 345.0,200.9 331.1,200.9 331.1,186.7"/>
    <poly id="bldg_137" type="building" color="175,167,155" fill="1" layer="-5" shape="327.9,210.7 342.5,210.7 342.5,225.6 327.9,225.6 327.9,210.7"/>
    <poly id="bldg_138" type="building" color="212,198,182" fill="1" layer="-5" shape="353.5,-29.4 367.8,-29.4 367.8,-15.2 353.5,-15.2 353.5,-29.4"/>
    <poly id="bldg_139" type="building" color="184,176,164" fill="1" layer="-5" shape="353.1,-7.1 369.8,-7.1 369.8,7.0 353.1,7.0 353.1,-7.1"/>
    <poly id="bldg_140" type="building" color="175,167,155" fill="1" layer="-5" shape="352.5,18.1 369.2,18.1 369.2,33.3 352.5,33.3 352.5,18.1"/>
    <poly id="bldg_141" type="building" color="212,198,182" fill="1" layer="-5" shape="352.2,41.0 367.0,41.0 367.0,56.6 352.2,56.6 352.2,41.0"/>
    <poly id="bldg_142" type="building" color="184,176,164" fill="1" layer="-5" shape="352.0,92.0 368.5,92.0 368.5,106.0 352.0,106.0 352.0,92.0"/>
    <poly id="bldg_143" type="building" color="184,176,164" fill="1" layer="-5" shape="354.0,114.5 368.6,114.5 368.6,131.4 354.0,131.4 354.0,114.5"/>
    <poly id="bldg_144" type="building" color="199,190,178" fill="1" layer="-5" shape="350.9,138.0 367.2,138.0 367.2,154.9 350.9,154.9 350.9,138.0"/>
    <poly id="bldg_145" type="building" color="184,176,164" fill="1" layer="-5" shape="353.7,162.5 368.3,162.5 368.3,178.8 353.7,178.8 353.7,162.5"/>
    <poly id="bldg_146" type="building" color="199,190,178" fill="1" layer="-5" shape="352.6,183.7 367.1,183.7 367.1,199.8 352.6,199.8 352.6,183.7"/>
    <poly id="bldg_147" type="building" color="212,198,182" fill="1" layer="-5" shape="354.0,209.6 370.7,209.6 370.7,225.4 354.0,225.4 354.0,209.6"/>
    <poly id="bldg_148" type="building" color="212,198,182" fill="1" layer="-5" shape="376.1,-31.9 390.2,-31.9 390.2,-15.2 376.1,-15.2 376.1,-31.9"/>
    <poly id="bldg_149" type="building" color="184,176,164" fill="1" layer="-5" shape="376.0,-8.9 391.4,-8.9 391.4,8.0 376.0,8.0 376.0,-8.9"/>
    <poly id="bldg_150" type="building" color="199,190,178" fill="1" layer="-5" shape="378.1,16.4 394.5,16.4 394.5,31.6 378.1,31.6 378.1,16.4"/>
    <poly id="bldg_151" type="building" color="208,200,186" fill="1" layer="-5" shape="378.9,43.3 394.1,43.3 394.1,57.1 378.9,57.1 378.9,43.3"/>
    <poly id="bldg_152" type="building" color="184,176,164" fill="1" layer="-5" shape="378.0,65.5 394.9,65.5 394.9,82.3 378.0,82.3 378.0,65.5"/>
    <poly id="bldg_153" type="building" color="199,190,178" fill="1" layer="-5" shape="376.1,89.6 390.6,89.6 390.6,103.6 376.1,103.6 376.1,89.6"/>
    <poly id="park_154" type="park" color="168,200,148" fill="1" layer="-6" shape="377.5,112.9 393.9,112.9 393.9,129.7 377.5,129.7 377.5,112.9"/>
    <poly id="bldg_155" type="building" color="199,190,178" fill="1" layer="-5" shape="376.5,138.1 393.3,138.1 393.3,152.8 376.5,152.8 376.5,138.1"/>
    <poly id="bldg_156" type="building" color="208,200,186" fill="1" layer="-5" shape="374.9,163.0 391.6,163.0 391.6,177.6 374.9,177.6 374.9,163.0"/>
    <poly id="bldg_157" type="building" color="175,167,155" fill="1" layer="-5" shape="374.7,184.2 391.7,184.2 391.7,198.1 374.7,198.1 374.7,184.2"/>
    <poly id="bldg_158" type="building" color="212,198,182" fill="1" layer="-5" shape="375.6,208.8 391.5,208.8 391.5,224.9 375.6,224.9 375.6,208.8"/>
</additional>
