<?xml version="1.0" encoding="UTF-8"?>
<additional>
    <poly id="ground" type="ground" color="223,226,221" fill="1" layer="-10" shape="-111.6,-118.8 314.6,-118.8 314.6,146.9 -111.6,146.9 -111.6,-118.8"/>
    <poly id="bldg_0" type="building" color="199,190,178" fill="1" layer="-5" shape="-106.3,-115.9 -91.8,-115.9 -91.8,-101.5 -106.3,-101.5 -106.3,-115.9"/>
    <poly id="park_1" type="park" color="168,200,148" fill="1" layer="-6" shape="-106.4,-89.5 -90.8,-89.5 -90.8,-75.8 -106.4,-75.8 -106.4,-89.5"/>
    <poly id="bldg_2" type="building" color="208,200,186" fill="1" layer="-5" shape="-106.7,-68.6 -92.4,-68.6 -92.4,-52.8 -106.7,-52.8 -106.7,-68.6"/>
    <poly id="bldg_3" type="building" color="212,198,182" fill="1" layer="-5" shape="-108.1,-43.8 -91.5,-43.8 -91.5,-27.6 -108.1,-27.6 -108.1,-43.8"/>
    <poly id="park_4" type="park" color="168,200,148" fill="1" layer="-6" shape="-108.7,-19.6 -91.8,-19.6 -91.8,-4.8 -108.7,-4.8 -108.7,-19.6"/>
    <poly id="bldg_5" type="building" color="196,188,176" fill="1" layer="-5" shape="-107.4,5.7 -92.9,5.7 -92.9,19.4 -107.4,19.4 -107.4,5.7"/>
    <poly id="bldg_6" type="building" color="184,176,164" fill="1" layer="-5" shape="-105.4,28.5 -90.0,28.5 -90.0,44.9 -105.4,44.9 -105.4,28.5"/>
    <poly id="bldg_7" type="building" color="196,188,176" fill="1" layer="-5" shape="-106.2,54.8 -92.4,54.8 -92.4,69.2 -106.2,69.2 -106.2,54.8"/>
    <poly id="bldg_8" type="building" color="208,200,186" fill="1" layer="-5" shape="-105.6,79.1 -90.7,79.1 -90.7,94.2 -105.6,94.2 -105.6,79.1"/>
    <poly id="bldg_9" type="building" color="175,167,155" fill="1" layer="-5" shape="-107.4,99.6 -92.9,99.6 -92.9,116.4 -107.4,116.4 -107.4,99.6"/>
    <poly id="bldg_10" type="building" color="199,190,178" fill="1" layer="-5" shape="-106.3,125.7 -91.8,125.7 -91.8,140.9 -106.3,140.9 -106.3,125.7"/>
    <poly id="park_11" type="park" color="168,200,148" fill="1" layer="-6" shape="-82.2,-116.0 -67.5,-116.0 -67.5,-99.8 -82.2,-99.8 -82.2,-116.0"/>
    <poly id="bldg_12" type="building" color="199,190,178" fill="1" layer="-5" shape="-81.3,-91.6 -67.5,-91.6 -67.5,-74.9 -81.3,-74.9 -81.3,-91.6"/>
    <poly id="bldg_13" type="building" color="184,176,164" fill="1" layer="-5" shape="-83.8,-66.5 -68.9,-66.5 -68.9,-49.8 -83.8,-49.8 -83.8,-66.5"/>
    <poly id="bldg_14" type="building" color="175,167,155" fill="1" layer="-5" shape="-84.7,-41.9 -69.3,-41.9 -69.3,-25.8 -84.7,-25.8 -84.7,-41.9"/>
    <poly id="park_15" type="park" color="168,200,148" fill="1" layer="-6" shape="-80.6,6.3 -66.6,6.3 -66.6,20.1 -80.6,20.1 -80.6,6.3"/>
    <poly id="bldg_16" type="building" color="175,167,155" fill="1" layer="-5" shape="-81.3,29.4 -67.5,29.4 -67.5,44.3 -81.3,44.3 -81.3,29.4"/>
    <poly id="park_17" type="park" color="152,190,138" fill="1" layer="-6" shape="-85.0,53.4 -68.2,53.4 -68.2,69.4 -85.0,69.4 -85.0,53.4"/>
    <poly id="park_18" type="park" color="152,190,138" fill="1" layer="-6" shape="-81.8,77.5 -67.2,77.5 -67.2,91.6 -81.8,91.6 -81.8,77.5"/>
    <poly id="bldg_19" type="building" color="199,190,178" fill="1" layer="-5" shape="-81.4,103.3 -66.0,103.3 -66.0,117.2 -81.4,117.2 -81.4,103.3"/>
    <poly id="bldg_20" type="building" color="175,167,155" fill="1" layer="-5" shape="-83.0,124.9 -68.1,124.9 -68.1,139.1 -83.0,139.1 -83.0,124.9"/>
    <poly id="bldg_21" type="building" color="184,176,164" fill="1" layer="-5" shape="-57.5,-113.4 -42.3,-113.4 -42.3,-99.4 -57.5,-99.4 -57.5,-113.4"/>
    <poly id="bldg_22" type="building" color="196,188,176" fill="1" layer="-5" shape="-60.4,-90.8 -44.9,-90.8 -44.9,-76.9 -60.4,-76.9 -60.4,-90.8"/>
    <poly id="bldg_23" type="building" color="208,200,186" fill="1" layer="-5" shape="-56.7,-66.6 -42.7,-66.6 -42.7,-50.8 -56.7,-50.8 -56.7,-66.6"/>
    <poly id="bldg_24" type="building" color="199,190,178" fill="1" layer="-5" shape="-60.0,-40.5 -45.0,-40.5 -45.0,-26.2 -60.0,-26.2 -60.0,-40.5"/>
    <poly id="bldg_25" type="building" color="208,200,186" fill="1" layer="-5" shape="-59.4,5.5 -44.6,5.5 -44.6,22.2 -59.4,22.2 -59.4,5.5"/>
    <poly id="bldg_26" type="building" color="196,188,176" fill="1" layer="-5" shape="-60.5,29.4 -44.9,29.4 -44.9,43.7 -60.5,43.7 -60.5,29.4"/>
    <poly id="bldg_27" type="building" color="175,167,155" fill="1" layer="-5" shape="-57.7,52.6 -43.8,52.6 -43.8,66.3 -57.7,66.3 -57.7,52.6"/>
    <poly id="bldg_28" type="building" color="175,167,155" fill="1" layer="-5" shape="-59.8,78.8 -45.5,78.8 -45.5,92.9 -59.8,92.9 -59.8,78.8"/>
    <poly id="park_29" type="park" color="152,190,138" fill="1" layer="-6" shape="-58.9,100.7 -43.7,100.7 -43.7,115.7 -58.9,115.7 -58.9,100.7"/>
    <poly id="bldg_30" type="building" color="199,190,178" fill="1" layer="-5" shape="-60.4,125.9 -43.9,125.9 -43.9,139.7 -60.4,139.7 -60.4,125.9"/>
    <poly id="bldg_31" type="building" color="208,200,186" fill="1" layer="-5" shape="-36.6,-115.5 -21.8,-115.5 -21.8,-98.9 -36.6,-98.9 -36.6,-115.5"/>
    <poly id="bldg_32" type="building" color="196,188,176" fill="1" layer="-5" shape="-34.6,-91.8 -20.3,-91.8 -20.3,-76.7 -34.6,-76.7 -34.6,-91.8"/>
    <poly id="bldg_33" type="building" color="196,188,176" fill="1" layer="-5" shape="-35.6,-64.3 -20.1,-64.3 -20.1,-50.5 -35.6,-50.5 -35.6,-64.3"/>
    <poly id="bldg_34" type="building" color="208,200,186" fill="1" layer="-5" shape="-34.0,-40.2 -17.5,-40.2 -17.5,-26.0 -34.0,-26.0 -34.0,-40.2"/>
    <poly id="bldg_35" type="building" color="199,190,178" fill="1" layer="-5" shape="-36.2,31.6 -19.9,31.6 -19.9,46.2 -36.2,46.2 -36.2,31.6"/>
    <poly id="bldg_36" type="building" color="196,188,176" fill="1" layer="-5" shape="-33.6,54.3 -17.6,54.3 -17.6,68.5 -33.6,68.5 -33.6,54.3"/>
    <poly id="bldg_37" type="building" color="175,167,155" fill="1" layer="-5" shape="-35.3,78.5 -19.2,78.5 -19.2,92.3 -35.3,92.3 -35.3,78.5"/>
    <poly id="bldg_38" type="building" color="196,188,176" fill="1" layer="-5" shape="-32.8,101.7 -19.0,101.7 -19.0,117.0 -32.8,117.0 -32.8,101.7"/>
    <poly id="bldg_39" type="building" color="208,200,186" fill="1" layer="-5" shape="-34.4,126.9 -20.0,126.9 -20.0,140.9 -34.4,140.9 -34.4,126.9"/>
    <poly id="bldg_40" type="building" color="184,176,164" fill="1" layer="-5" shape="-10.2,-116.6 3.7,-116.6 3.7,-100.7 -10.2,-100.7 -10.2,-116.6"/>
    <poly id="bldg_41" type="building" color="199,190,178" fill="1" layer="-5" shape="-9.9,-91.2 6.2,-91.2 6.2,-76.8 -9.9,-76.8 -9.9,-91.2"/>
    <poly id="park_42" type="park" color="168,200,148" fill="1" layer="-6" shape="-11.4,-67.4 5.4,-67.4 5.4,-50.6 -11.4,-50.6 -11.4,-67.4"/>
    <poly id="bldg_43" type="building" color="208,200,186" fill="1" layer="-5" shape="-12.5,-44.3 2.0,-44.3 2.0,-27.6 -12.5,-27.6 -12.5,-44.3"/>
    <poly id="bldg_44" type="building" color="196,188,176" fill="1" layer="-5" shape="-10.1,5.5 5.6,5.5 5.6,22.5 -10.1,22.5 -10.1,5.5"/>
    <poly id="bldg_45" type="building" color="184,176,164" fill="1" layer="-5" shape="-11.3,30.4 5.5,30.4 5.5,44.4 -11.3,44.4 -11.3,30.4"/>
    <poly id="bldg_46" type="building" color="199,190,178" fill="1" layer="-5" shape="-12.9,52.4 2.6,52.4 2.6,66.9 -12.9,66.9 -12.9,52.4"/>
    <poly id="bldg_47" type="building" color="196,188,176" fill="1" layer="-5" shape="-12.5,78.3 4.0,78.3 4.0,93.6 -12.5,93.6 -12.5,78.3"/>
    <poly id="bldg_48" type="building" color="199,190,178" fill="1" layer="-5" shape="-12.5,102.1 2.0,102.1 2.0,115.7 -12.5,115.7 -12.5,102.1"/>
    <poly id="bldg_49" type="building" color="196,188,176" fill="1" layer="-5" shape="-9.2,123.8 5.9,123.8 5.9,139.8 -9.2,139.8 -9.2,123.8"/>
    <poly id="bldg_50" type="building" color="175,167,155" fill="1" layer="-5" shape="10.4,-113.0 27.0,-113.0 27.0,-97.6 10.4,-97.6 10.4,-113.0"/>
    <poly id="bldg_51" type="building" color="196,188,176" fill="1" layer="-5" shape="13.7,-90.5 27.5,-90.5 27.5,-75.7 13.7,-75.7 13.7,-90.5"/>
    <poly id="bldg_52" type="building" color="212,198,182" fill="1" layer="-5" shape="14.8,-66.9 29.2,-66.9 29.2,-53.0 14.8,-53.0 14.8,-66.9"/>
    <poly id="bldg_53" type="building" color="208,200,186" fill="1" layer="-5" shape="13.9,-41.0 30.7,-41.0 30.7,-26.6 13.9,-26.6 13.9,-41.0"/>
    <poly id="bldg_54" type="building" color="199,190,178" fill="1" layer="-5" shape="13.9,30.2 30.4,30.2 30.4,46.6 13.9,46.6 13.9,30.2"/>
    <poly id="bldg_55" type="building" color="212,198,182" fill="1" layer="-5" shape="10.6,55.5 27.1,55.5 27.1,69.9 10.6,69.9 10.6,55.5"/>
    <poly id="bldg_56" type="building" color="212,198,182" fill="1" layer="-5" shape="11.5,79.3 28.1,79.3 28.1,93.7 11.5,93.7 11.5,79.3"/>
    <poly id="bldg_57" type="building" color="212,198,182" fill="1" layer="-5" shape="11.3,103.4 28.2,103.4 28.2,117.9 11.3,117.9 11.3,103.4"/>
    <poly id="bldg_58" type="building" color="184,176,164" fill="1" layer="-5" shape="13.8,127.7 28.5,127.7 28.5,141.4 13.8,141.4 13.8,127.7"/>
    <poly id="bldg_59" type="building" color="199,190,178" fill="1" layer="-5" shape="35.9,-111.9 50.4,-111.9 50.4,-98.0 35.9,-98.0 35.9,-111.9"/>
    <poly id="bldg_60" type="building" color="208,200,186" fill="1" layer="-5" shape="37.1,-90.1 54.0,-90.1 54.0,-76.1 37.1,-76.1 37.1,-90.1"/>
    <poly id="bldg_61" type="building" color="199,190,178" fill="1" layer="-5" shape="36.6,-66.3 50.2,-66.3 50.2,-49.6 36.6,-49.6 36.6,-66.3"/>
    <poly id="bldg_62" type="building" color="184,176,164" fill="1" layer="-5" shape="39.0,-41.4 53.3,-41.4 53.3,-26.3 39.0,-26.3 39.0,-41.4"/>
    <poly id="bldg_63" type="building" color="199,190,178" fill="1" layer="-5" shape="35.2,6.9 50.6,6.9 50.6,22.7 35.2,22.7 35.2,6.9"/>
    <poly id="bldg_64" type="building" color="208,200,186" fill="1" layer="-5" shape="36.1,27.3 51.1,27.3 51.1,44.1 36.1,44.1 36.1,27.3"/>
    <poly id="bldg_65" type="building" color="212,198,182" fill="1" layer="-5" shape="37.1,53.6 52.6,53.6 52.6,67.2 37.1,67.2 37.1,53.6"/>
    <poly id="bldg_66" type="building" color="175,167,155" fill="1" layer="-5" shape="38.2,78.1 52.9,78.1 52.9,93.2 38.2,93.2 38.2,78.1"/>
    <poly id="park_67" type="park" color="152,190,138" fill="1" layer="-6" shape="36.1,103.7 52.5,103.7 52.5,117.9 36.1,117.9 36.1,103.7"/>
    <poly id="bldg_68" type="building" color="208,200,186" fill="1" layer="-5" shape="35.6,127.7 50.0,127.7 50.0,142.3 35.6,142.3 35.6,127.7"/>
    <poly id="park_69" type="park" color="152,190,138" fill="1" layer="-6" shape="58.9,-116.1 74.1,-116.1 74.1,-99.6 58.9,-99.6 58.9,-116.1"/>
    <poly id="bldg_70" type="building" color="208,200,186" fill="1" layer="-5" shape="61.9,-90.0 78.0,-90.0 78.0,-75.1 61.9,-75.1 61.9,-90.0"/>
    <poly id="park_71" type="park" color="152,190,138" fill="1" layer="-6" shape="61.0,-68.9 77.1,-68.9 77.1,-52.7 61.0,-52.7 61.0,-68.9"/>
    <poly id="bldg_72" type="building" color="196,188,176" fill="1" layer="-5" shape="59.3,-41.2 75.3,-41.2 75.3,-26.0 59.3,-26.0 59.3,-41.2"/>
    <poly id="bldg_73" type="building" color="175,167,155" fill="1" layer="-5" shape="61.3,6.7 76.9,6.7 76.9,23.6 61.3,23.6 61.3,6.7"/>
    <poly id="bldg_74" type="building" color="208,200,186" fill="1" layer="-5" shape="62.1,30.4 77.2,30.4 77.2,47.1 62.1,47.1 62.1,30.4"/>
    <poly id="bldg_75" type="building" color="175,167,155" fill="1" layer="-5" shape="62.1,53.9 76.6,53.9 76.6,68.3 62.1,68.3 62.1,53.9"/>
    <poly id="bldg_76" type="building" color="184,176,164" fill="1" layer="-5" shape="60.8,76.1 75.9,76.1 75.9,92.2 60.8,92.2 60.8,76.1"/>
    <poly id="bldg_77" type="building" color="199,190,178" fill="1" layer="-5" shape="60.7,102.2 74.7,102.2 74.7,116.5 60.7,116.5 60.7,102.2"/>
    <poly id="park_78" type="park" color="152,190,138" fill="1" layer="-6" shape="59.9,125.3 74.6,125.3 74.6,140.4 59.9,140.4 59.9,125.3"/>
    <poly id="bldg_79" type="building" color="175,167,155" fill="1" layer="-5" shape="83.6,-112.6 100.4,-112.6 100.4,-98.9 83.6,-98.9 83.6,-112.6"/>
    <poly id="bldg_80" type="building" color="175,167,155" fill="1" layer="-5" shape="84.4,124.9 100.1,124.9 100.1,138.5 84.4,138.5 84.4,124.9"/>
    <poly id="bldg_81" type="building" color="184,176,164" fill="1" layer="-5" shape="109.5,-116.7 124.6,-116.7 124.6,-100.2 109.5,-100.2 109.5,-116.7"/>
    <poly id="bldg_82" type="building" color="212,198,182" fill="1" layer="-5" shape="108.6,-92.1 123.3,-92.1 123.3,-75.9 108.6,-75.9 108.6,-92.1"/>
    <poly id="bldg_83" type="building" color="184,176,164" fill="1" layer="-5" shape="108.6,-68.2 122.3,-68.2 122.3,-52.8 108.6,-52.8 108.6,-68.2"/>
    <poly id="park_84" type="park" color="168,200,148" fill="1" layer="-6" shape="106.9,-43.4 123.7,-43.4 123.7,-29.7 106.9,-29.7 106.9,-43.4"/>
    <poly id="bldg_85" type="building" color="208,200,186" fill="1" layer="-5" shape="109.9,29.5 124.3,29.5 124.3,45.4 109.9,45.4 109.9,29.5"/>
    <poly id="bldg_86" type="building" color="184,176,164" fill="1" layer="-5" shape="108.8,54.9 124.9,54.9 124.9,71.2 108.8,71.2 108.8,54.9"/>
    <poly id="bldg_87" type="building" color="212,198,182" fill="1" layer="-5" shape="107.5,75.3 122.2,75.3 122.2,91.2 107.5,91.2 107.5,75.3"/>
    <poly id="bldg_88" type="building" color="199,190,178" fill="1" layer="-5" shape="110.4,99.8 126.0,99.8 126.0,116.2 110.4,116.2 110.4,99.8"/>
    <poly id="bldg_89" type="building" color="196,188,176" fill="1" layer="-5" shape="109.7,127.6 125.3,127.6 125.3,141.6 109.7,141.6 109.7,127.6"/>
    <poly id="bldg_90" type="building" color="212,198,182" fill="1" layer="-5" shape="132.4,-114.8 147.2,-114.8 147.2,-99.4 132.4,-99.4 132.4,-114.8"/>
    <poly id="bldg_91" type="building" color="199,190,178" fill="1" layer="-5" shape="133.3,-92.3 150.1,-92.3 150.1,-76.5 133.3,-76.5 133.3,-92.3"/>
    <poly id="bldg_92" type="building" color="175,167,155" fill="1" layer="-5" shape="131.3,-68.0 146.7,-68.0 146.7,-52.2 131.3,-52.2 131.3,-68.0"/>
    <poly id="bldg_93" type="building" color="208,200,186" fill="1" layer="-5" shape="133.3,-42.8 149.7,-42.8 149.7,-27.1 133.3,-27.1 133.3,-42.8"/>
    <poly id="bldg_94" type="building" color="208,200,186" fill="1" layer="-5" shape="132.8,30.8 147.7,30.8 147.7,44.5 132.8,44.5 132.8,30.8"/>
    <poly id="bldg_95" type="building" color="184,176,164" fill="1" layer="-5" shape="133.1,53.3 147.6,53.3 147.6,67.9 133.1,67.9 133.1,53.3"/>
    <poly id="bldg_96" type="building" color="175,167,155" fill="1" layer="-5" shape="133.5,78.0 147.8,78.0 147.8,92.5 133.5,92.5 133.5,78.0"/>
    <poly id="bldg_97" type="building" color="196,188,176" fill="1" layer="-5" shape="133.5,102.3 149.3,102.3 149.3,117.6 133.5,117.6 133.5,102.3"/>
    <poly id="bldg_98" type="building" color="175,167,155" fill="1" layer="-5" shape="132.4,124.9 146.8,124.9 146.8,140.7 132.4,140.7 132.4,124.9"/>
    <poly id="bldg_99" type="building" color="184,176,164" fill="1" layer="-5" shape="156.5,-114.5 172.6,-114.5 172.6,-99.7 156.5,-99.7 156.5,-114.5"/>
    <poly id="bldg_100" type="building" color="199,190,178" fill="1" layer="-5" shape="155.6,-91.2 171.7,-91.2 171.7,-76.6 155.6,-76.6 155.6,-91.2"/>
    <poly id="bldg_101" type="building" color="175,167,155" fill="1" layer="-5" shape="155.5,-68.0 170.8,-68.0 170.8,-51.9 155.5,-51.9 155.5,-68.0"/>
    <poly id="bldg_102" type="building" color="184,176,164" fill="1" layer="-5" shape="156.6,-40.2 173.0,-40.2 173.0,-25.6 156.6,-25.6 156.6,-40.2"/>
    <poly id="bldg_103" type="building" color="212,198,182" fill="1" layer="-5" shape="155.8,7.1 171.2,7.1 171.2,23.1 155.8,23.1 155.8,7.1"/>
    <poly id="bldg_104" type="building" color="196,188,176" fill="1" layer="-5" shape="155.5,27.6 170.1,27.6 170.1,42.9 155.5,42.9 155.5,27.6"/>
    <poly id="bldg_105" type="building" color="175,167,155" fill="1" layer="-5" shape="156.4,55.7 170.4,55.7 170.4,69.5 156.4,69.5 156.4,55.7"/>
    <poly id="bldg_106" type="building" color="208,200,186" fill="1" layer="-5" shape="157.9,75.6 172.0,75.6 172.0,91.2 157.9,91.2 157.9,75.6"/>
    <poly id="bldg_107" type="building" color="175,167,155" fill="1" layer="-5" shape="155.1,102.1 170.7,102.1 170.7,118.4 155.1,118.4 155.1,102.1"/>
    <poly id="bldg_108" type="building" color="175,167,155" fill="1" layer="-5" shape="156.6,127.0 171.2,127.0 171.2,142.6 156.6,142.6 156.6,127.0"/>
    <poly id="bldg_109" type="building" color="208,200,186" fill="1" layer="-5" shape="180.8,-114.8 197.0,-114.8 197.0,-98.0 180.8,-98.0 180.8,-114.8"/>
    <poly id="bldg_110" type="building" color="212,198,182" fill="1" layer="-5" shape="180.3,-92.2 194.7,-92.2 194.7,-76.7 180.3,-76.7 180.3,-92.2"/>
    <poly id="bldg_111" type="building" color="199,190,178" fill="1" layer="-5" shape="180.9,-65.6 195.5,-65.6 195.5,-51.2 180.9,-51.2 180.9,-65.6"/>
    <poly id="bldg_112" type="building" color="175,167,155" fill="1" layer="-5" shape="182.7,-43.8 197.0,-43.8 197.0,-29.3 182.7,-29.3 182.7,-43.8"/>
    <poly id="bldg_113" type="building" color="184,176,164" fill="1" layer="-5" shape="180.8,31.9 197.2,31.9 197.2,45.7 180.8,45.7 180.8,31.9"/>
    <poly id="bldg_114" type="building" color="184,176,164" fill="1" layer="-5" shape="180.4,54.9 197.2,54.9 197.2,70.0 180.4,70.0 180.4,54.9"/>
    <poly id="park_115" type="park" color="168,200,148" fill="1" layer="-6" shape="181.6,79.3 196.9,79.3 196.9,94.6 181.6,94.6 181.6,79.3"/>
    <poly id="bldg_116" type="building" color="199,190,178" fill="1" layer="-5" shape="182.1,103.3 197.8,103.3 197.8,117.0 182.1,117.0 182.1,103.3"/>
    <poly id="bldg_117" type="building" color="184,176,164" fill="1" layer="-5" shape="181.3,125.0 198.2,125.0 198.2,142.0 181.3,142.0 181.3,125.0"/>
    <poly id="bldg_118" type="building" color="184,176,164" fill="1" layer="-5" shape="205.6,-113.4 219.8,-113.4 219.8,-98.1 205.6,-98.1 205.6,-113.4"/>
    <poly id="park_119" type="park" color="152,190,138" fill="1" layer="-6" shape="203.3,-90.1 219.0,-90.1 219.0,-74.8 203.3,-74.8 203.3,-90.1"/>
    <poly id="bldg_120" type="building" color="212,198,182" fill="1" layer="-5" shape="205.1,-66.6 219.0,-66.6 219.0,-52.5 205.1,-52.5 205.1,-66.6"/>
    <poly id="bldg_121" type="building" color="184,176,164" fill="1" layer="-5" shape="203.4,-40.8 219.7,-40.8 219.7,-25.3 203.4,-25.3 203.4,-40.8"/>
    <poly id="bldg_122" type="building" color="212,198,182" fill="1" layer="-5" shape="205.3,7.8 221.7,7.8 221.7,21.5 205.3,21.5 205.3,7.8"/>
    <poly id="bldg_123" type="building" color="196,188,176" fill="1" layer="-5" shape="204.6,27.9 219.5,27.9 219.5,44.0 204.6,44.0 204.6,27.9"/>
    <poly id="bldg_124" type="building" color="196,188,176" fill="1" layer="-5" shape="202.8,53.8 219.6,53.8 219.6,68.9 202.8,68.9 202.8,53.8"/>
    <poly id="bldg_125" type="building" color="196,188,176" fill="1" layer="-5" shape="202.4,77.7 218.7,77.7 218.7,93.7 202.4,93.7 202.4,77.7"/>
    <poly id="bldg_126" type="building" color="196,188,176" fill="1" layer="-5" shape="204.1,99.2 221.1,99.2 221.1,115.9 204.1,115.9 204.1,99.2"/>
    <poly id="bldg_127" type="building" color="212,198,182" fill="1" layer="-5" shape="204.6,124.5 221.4,124.5 221.4,139.1 204.6,139.1 204.6,124.5"/>
    <poly id="bldg_128" type="building" color="175,167,155" fill="1" layer="-5" shape="230.5,-112.6 245.0,-112.6 245.0,-97.2 230.5,-97.2 230.5,-112.6"/>
    <poly id="bldg_129" type="building" color="212,198,182" fill="1" layer="-5" shape="228.2,-88.6 244.7,-88.6 244.7,-74.0 228.2,-74.0 228.2,-88.6"/>
    <poly id="bldg_130" type="building" color="175,167,155" fill="1" layer="-5" shape="228.5,-64.5 243.0,-64.5 243.0,-50.9 228.5,-50.9 228.5,-64.5"/>
    <poly id="bldg_131" type="building" color="184,176,164" fill="1" layer="-5" shape="228.5,-41.7 245.0,-41.7 245.0,-26.6 228.5,-26.6 228.5,-41.7"/>
    <poly id="bldg_132" type="building" color="196,188,176" fill="1" layer="-5" shape="227.4,30.8 242.9,30.8 242.9,45.2 227.4,45.2 227.4,30.8"/>
    <poly id="bldg_133" type="building" color="199,190,178" fill="1" layer="-5" shape="227.3,53.6 244.0,53.6 244.0,68.5 227.3,68.5 227.3,53.6"/>
    <poly id="bldg_134" type="building" color="196,188,176" fill="1" layer="-5" shape="231.5,77.5 245.2,77.5 245.2,92.8 231.5,92.8 231.5,77.5"/>
    <poly id="bldg_135" type="building" color="212,198,182" fill="1" layer="-5" shape="230.2,101.4 245.6,101.4 245.6,116.5 230.2,116.5 230.2,101.4"/>
    <poly id="bldg_136" type="building" color="175,167,155" fill="1" layer="-5" shape="231.0,126.9 244.8,126.9 244.8,143.2 231.0,143.2 231.0,126.9"/>
    <poly id="bldg_137" type="building" color="212,198,182" fill="1" layer="-5" shape="252.9,-114.5 269.4,-114.5 269.4,-98.0 252.9,-98.0 252.9,-114.5"/>
    <poly id="bldg_138" type="building" color="175,167,155" fill="1" layer="-5" shape="253.9,-89.9 270.5,-89.9 270.5,-74.7 253.9,-74.7 253.9,-89.9"/>
    <poly id="bldg_139" type="building" color="212,198,182" fill="1" layer="-5" shape="250.3,-66.8 267.0,-66.8 267.0,-49.8 250.3,-49.8 250.3,-66.8"/>
    <poly id="bldg_140" type="building" color="184,176,164" fill="1" layer="-5" shape="254.3,-40.7 270.3,-40.7 270.3,-26.8 254.3,-26.8 254.3,-40.7"/>
    <poly id="bldg_141" type="building" color="208,200,186" fill="1" layer="-5" shape="252.2,28.0 267.6,28.0 267.6,43.5 252.2,43.5 252.2,28.0"/>
    <poly id="bldg_142" type="building" color="175,167,155" fill="1" layer="-5" shape="251.7,53.7 266.6,53.7 266.6,69.6 251.7,69.6 251.7,53.7"/>
    <poly id="park_143" type="park" color="152,190,138" fill="1" layer="-6" shape="251.8,77.8 266.2,77.8 266.2,92.3 251.8,92.3 251.8,77.8"/>
    <poly id="bldg_144" type="building" color="175,167,155" fill="1" layer="-5" shape="254.9,102.3 269.1,102.3 269.1,117.5 254.9,117.5 254.9,102.3"/>
    <poly id="bldg_145" type="building" color="212,198,182" fill="1" layer="-5" shape="251.6,127.5 267.6,127.5 267.6,142.6 251.6,142.6 251.6,127.5"/>
    <poly id="bldg_146" type="building" color="199,190,178" fill="1" layer="-5" shape="278.4,-115.8 293.3,-115.8 293.3,-101.0 278.4,-101.0 278.4,-115.8"/>
    <poly id="bldg_147" type="building" color="199,190,178" fill="1" layer="-5" shape="275.7,-88.2 291.5,-88.2 291.5,-73.6 275.7,-73.6 275.7,-88.2"/>
    <poly id="bldg_148" type="building" color="184,176,164" fill="1" layer="-5" shape="277.2,-65.0 293.9,-65.0 293.9,-48.8 277.2,-48.8 277.2,-65.0"/>
    <poly id="bldg_149" type="building" color="184,176,164" fill="1" layer="-5" shape="277.3,-43.1 293.7,-43.1 293.7,-28.7 277.3,-28.7 277.3,-43.1"/>
    <poly id="bldg_150" type="building" color="184,176,164" fill="1" layer="-5" shape="277.2,6.2 292.9,6.2 292.9,22.9 277.2,22.9 277.2,6.2"/>
    <poly id="bldg_151" type="building" color="184,176,164" fill="1" layer="-5" shape="278.1,28.3 293.0,28.3 293.0,42.3 278.1,42.3 278.1,28.3"/>
    <poly id="bldg_152" type="building" color="175,167,155" fill="1" layer="-5" shape="278.4,52.2 292.4,52.2 292.4,67.6 278.4,67.6 278.4,52.2"/>
    <poly id="bldg_153" type="building" color="184,176,164" fill="1" layer="-5" shape="277.3,75.9 291.5,75.9 291.5,92.6 277.3,92.6 277.3,75.9"/>
    <poly id="bldg_154" type="building" color="208,200,186" fill="1" layer="-5" shape="278.4,100.1 292.4,100.1 292.4,117.0 278.4,117.0 278.4,100.1"/>
    <poly id="bldg_155" type="building" color="184,176,164" fill="1" layer="-5" shape="277.4,125.6 294.3,125.6 294.3,142.5 277.4,142.5 277.4,125.6"/>
    <poly id="bldg_156" type="building" color="199,190,178" fill="1" layer="-5" shape="299.5,-114.2 314.0,-114.2 314.0,-100.2 299.5,-100.2 299.5,-114.2"/>
    <poly id="park_157" type="park" color="168,200,148" fill="1" layer="-6" shape="300.9,-90.9 317.3,-90.9 317.3,-74.1 300.9,-74.1 300.9,-90.9"/>
    <poly id="bldg_158" type="building" color="199,190,178" fill="1" layer="-5" shape="299.9,-65.7 316.7,-65.7 316.7,-51.0 299.9,-51.0 299.9,-65.7"/>
    <poly id="bldg_159" type="building" color="208,200,186" fill="1" layer="-5" shape="298.3,-40.8 315.0,-40.8 315.0,-26.2 298.3,-26.2 298.3,-40.8"/>
    <poly id="bldg_160" type="building" color="175,167,155" fill="1" layer="-5" shape="298.1,-19.7 315.1,-19.7 315.1,-5.7 298.1,-5.7 298.1,-19.7"/>
    <poly id="bldg_161" type="building" color="212,198,182" fill="1" layer="-5" shape="299.0,4.9 314.9,4.9 314.9,21.1 299.0,21.1 299.0,4.9"/>
    <poly id="bldg_162" type="building" color="175,167,155" fill="1" layer="-5" shape="300.5,30.2 317.1,30.2 317.1,46.0 300.5,46.0 300.5,30.2"/>
    <poly id="bldg_163" type="building" color="208,200,186" fill="1" layer="-5" shape="301.2,55.6 314.9,55.6 314.9,70.4 301.2,70.4 301.2,55.6"/>
    <poly id="bldg_164" type="building" color="184,176,164" fill="1" layer="-5" shape="301.9,75.9 317.8,75.9 317.8,91.3 301.9,91.3 301.9,75.9"/>
    <poly id="bldg_165" type="building" color="196,188,176" fill="1" layer="-5" shape="298.2,99.9 315.1,99.9 315.1,116.7 298.2,116.7 298.2,99.9"/>
    <poly id="bldg_166" type="building" color="208,200,186" fill="1" layer="-5" shape="301.2,126.9 316.9,126.9 316.9,140.6 301.2,140.6 301.2,126.9"/>
</additional>
