<?xml version="1.0" encoding="UTF-8"?>
<additional>
    <poly id="ground" type="ground" color="223,226,221" fill="1" layer="-10" shape="-35.0,-35.0 391.2,-35.0 391.2,230.7 -35.0,230.7 -35.0,-35.0"/>
    <poly id="bldg_0" type="building" color="199,190,178" fill="1" layer="-5" shape="-29.7,-32.1 -15.2,-32.1 -15.2,-17.7 -29.7,-17.7 -29.7,-32.1"/>
    <poly id="park_1" type="park" color="168,200,148" fill="1" layer="-6" shape="-29.8,-5.7 -14.2,-5.7 -14.2,8.0 -29.8,8.0 -29.8,-5.7"/>
    <poly id="bldg_2" type="building" color="208,200,186" fill="1" layer="-5" shape="-30.1,15.2 -15.8,15.2 -15.8,31.0 -30.1,31.0 -30.1,15.2"/>
    <poly id="bldg_3" type="building" color="212,198,182" fill="1" layer="-5" shape="-31.5,40.0 -14.9,40.0 -14.9,56.2 -31.5,56.2 -31.5,40.0"/>
    <poly id="park_4" type="park" color="168,200,148" fill="1" layer="-6" shape="-32.1,64.2 -15.2,64.2 -15.2,79.0 -32.1,79.0 -32.1,64.2"/>
    <poly id="bldg_5" type="building" color="196,188,176" fill="1" layer="-5" shape="-30.8,89.5 -16.3,89.5 -16.3,103.2 -30.8,103.2 -30.8,89.5"/>
    <poly id="bldg_6" type="building" color="184,176,164" fill="1" layer="-5" shape="-28.8,112.3 -13.4,112.3 -13.4,128.7 -28.8,128.7 -28.8,112.3"/>
    <poly id="bldg_7" type="building" color="196,188,176" fill="1" layer="-5" shape="-29.6,138.6 -15.8,138.6 -15.8,153.0 -29.6,153.0 -29.6,138.6"/>
    <poly id="bldg_8" type="building" color="208,200,186" fill="1" layer="-5" shape="-29.0,162.9 -14.1,162.9 -14.1,178.0 -29.0,178.0 -29.0,162.9"/>
    <poly id="bldg_9" type="building" color="175,167,155" fill="1" layer="-5" shape="-30.8,183.4 -16.3,183.4 -16.3,200.2 -30.8,200.2 -30.8,183.4"/>
    <poly id="bldg_10" type="building" color="199,190,178" fill="1" layer="-5" shape="-29.7,209.6 -15.2,209.6 -15.2,224.7 -29.7,224.7 -29.7,209.6"/>
    <poly id="park_11" type="park" color="168,200,148" fill="1" layer="-6" shape="-5.6,-32.2 9.1,-32.2 9.1,-16.0 -5.6,-16.0 -5.6,-32.2"/>
    <poly id="bldg_12" type="building" color="199,190,178" fill="1" layer="-5" shape="-4.7,-7.7 9.1,-7.7 9.1,9.0 -4.7,9.0 -4.7,-7.7"/>
    <poly id="bldg_13" type="building" color="184,176,164" fill="1" layer="-5" shape="-7.2,17.3 7.7,17.3 7.7,34.0 -7.2,34.0 -7.2,17.3"/>
    <poly id="bldg_14" type="building" color="175,167,155" fill="1" layer="-5" shape="-8.2,41.9 7.3,41.9 7.3,58.0 -8.2,58.0 -8.2,41.9"/>
    <poly id="park_15" type="park" color="168,200,148" fill="1" layer="-6" shape="-4.0,90.2 9.9,90.2 9.9,103.9 -4.0,103.9 -4.0,90.2"/>
    <poly id="bldg_16" type="building" color="175,167,155" fill="1" layer="-5" shape="-4.7,113.2 9.1,113.2 9.1,128.1 -4.7,128.1 -4.7,113.2"/>
    <poly id="park_17" type="park" color="152,190,138" fill="1" layer="-6" shape="-8.4,137.3 8.4,137.3 8.4,153.2 -8.4,153.2 -8.4,137.3"/>
    <poly id="park_18" type="park" color="152,190,138" fill="1" layer="-6" shape="-5.2,161.3 9.4,161.3 9.4,175.4 -5.2,175.4 -5.2,161.3"/>
    <poly id="bldg_19" type="building" color="199,190,178" fill="1" layer="-5" shape="-4.8,187.1 10.6,187.1 10.6,201.0 -4.8,201.0 -4.8,187.1"/>
    <poly id="bldg_20" type="building" color="175,167,155" fill="1" layer="-5" shape="-6.4,208.7 8.5,208.7 8.5,222.9 -6.4,222.9 -6.4,208.7"/>
    <poly id="bldg_21" type="building" color="184,176,164" fill="1" layer="-5" shape="19.0,-29.6 34.3,-29.6 34.3,-15.6 19.0,-15.6 19.0,-29.6"/>
    <poly id="bldg_22" type="building" color="196,188,176" fill="1" layer="-5" shape="16.2,-7.0 31.7,-7.0 31.7,6.9 16.2,6.9 16.2,-7.0"/>
    <poly id="bldg_23" type="building" color="208,200,186" fill="1" layer="-5" shape="19.9,17.2 33.9,17.2 33.9,33.1 19.9,33.1 19.9,17.2"/>
    <poly id="bldg_24" type="building" color="199,190,178" fill="1" layer="-5" shape="16.5,43.3 31.6,43.3 31.6,57.6 16.5,57.6 16.5,43.3"/>
    <poly id="bldg_25" type="building" color="208,200,186" fill="1" layer="-5" shape="17.2,89.4 32.0,89.4 32.0,106.0 17.2,106.0 17.2,89.4"/>
    <poly id="bldg_26" type="building" color="196,188,176" fill="1" layer="-5" shape="16.1,113.2 31.7,113.2 31.7,127.5 16.1,127.5 16.1,113.2"/>
    <poly id="bldg_27" type="building" color="175,167,155" fill="1" layer="-5" shape="18.9,136.4 32.7,136.4 32.7,150.1 18.9,150.1 18.9,136.4"/>
    <poly id="bldg_28" type="building" color="175,167,155" fill="1" layer="-5" shape="16.8,162.7 31.1,162.7 31.1,176.7 16.8,176.7 16.8,162.7"/>
    <poly id="park_29" type="park" color="152,190,138" fill="1" layer="-6" shape="17.7,184.5 32.9,184.5 32.9,199.5 17.7,199.5 17.7,184.5"/>
    <poly id="bldg_30" type="building" color="199,190,178" fill="1" layer="-5" shape="16.1,209.8 32.7,209.8 32.7,223.5 16.1,223.5 16.1,209.8"/>
    <poly id="bldg_31" type="building" color="208,200,186" fill="1" layer="-5" shape="40.0,-31.7 54.8,-31.7 54.8,-15.1 40.0,-15.1 40.0,-31.7"/>
    <poly id="bldg_32" type="building" color="196,188,176" fill="1" layer="-5" shape="42.0,-8.0 56.3,-8.0 56.3,7.1 42.0,7.1 42.0,-8.0"/>
    <poly id="bldg_33" type="building" color="196,188,176" fill="1" layer="-5" shape="41.0,19.6 56.5,19.6 56.5,33.3 41.0,33.3 41.0,19.6"/>
    <poly id="bldg_34" type="building" color="208,200,186" fill="1" layer="-5" shape="42.6,43.6 59.1,43.6 59.1,57.8 42.6,57.8 42.6,43.6"/>
    <poly id="bldg_35" type="building" color="199,190,178" fill="1" layer="-5" shape="40.4,115.4 56.7,115.4 56.7,130.0 40.4,130.0 40.4,115.4"/>
    <poly id="bldg_36" type="building" color="196,188,176" fill="1" layer="-5" shape="43.0,138.2 59.0,138.2 59.0,152.3 43.0,152.3 43.0,138.2"/>
    <poly id="bldg_37" type="building" color="175,167,155" fill="1" layer="-5" shape="41.2,162.3 57.4,162.3 57.4,176.1 41.2,176.1 41.2,162.3"/>
    <poly id="bldg_38" type="building" color="196,188,176" fill="1" layer="-5" shape="43.8,185.5 57.6,185.5 57.6,200.8 43.8,200.8 43.8,185.5"/>
    <poly id="bldg_39" type="building" color="208,200,186" fill="1" layer="-5" shape="42.2,210.7 56.6,210.7 56.6,224.7 42.2,224.7 42.2,210.7"/>
    <poly id="bldg_40" type="building" color="184,176,164" fill="1" layer="-5" shape="66.4,-32.8 80.3,-32.8 80.3,-16.9 66.4,-16.9 66.4,-32.8"/>
    <poly id="bldg_41" type="building" color="199,190,178" fill="1" layer="-5" shape="66.7,-7.4 82.8,-7.4 82.8,7.0 66.7,7.0 66.7,-7.4"/>
    <poly id="park_42" type="park" color="168,200,148" fill="1" layer="-6" shape="65.2,16.4 82.0,16.4 82.0,33.2 65.2,33.2 65.2,16.4"/>
    <poly id="bldg_43" type="building" color="208,200,186" fill="1" layer="-5" shape="64.0,39.5 78.5,39.5 78.5,56.2 64.0,56.2 64.0,39.5"/>
    <poly id="bldg_44" type="building" color="196,188,176" fill="1" layer="-5" shape="66.5,89.3 82.2,89.3 82.2,106.3 66.5,106.3 66.5,89.3"/>
    <poly id="bldg_45" type="building" color="184,176,164" fill="1" layer="-5" shape="65.3,114.2 82.1,114.2 82.1,128.2 65.3,128.2 65.3,114.2"/>
    <poly id="bldg_46" type="building" color="199,190,178" fill="1" layer="-5" shape="63.7,136.2 79.2,136.2 79.2,150.7 63.7,150.7 63.7,136.2"/>
    <poly id="bldg_47" type="building" color="196,188,176" fill="1" layer="-5" shape="64.1,162.1 80.6,162.1 80.6,177.4 64.1,177.4 64.1,162.1"/>
    <poly id="bldg_48" type="building" color="199,190,178" fill="1" layer="-5" shape="64.1,185.9 78.6,185.9 78.6,199.5 64.1,199.5 64.1,185.9"/>
    <poly id="bldg_49" type="building" color="196,188,176" fill="1" layer="-5" shape="67.4,207.6 82.5,207.6 82.5,223.6 67.4,223.6 67.4,207.6"/>
    <poly id="bldg_50" type="building" color="175,167,155" fill="1" layer="-5" shape="87.0,-29.2 103.6,-29.2 103.6,-13.7 87.0,-13.7 87.0,-29.2"/>
    <poly id="bldg_51" type="building" color="196,188,176" fill="1" layer="-5" shape="90.3,-6.7 104.1,-6.7 104.1,8.1 90.3,8.1 90.3,-6.7"/>
    <poly id="bldg_52" type="building" color="212,198,182" fill="1" layer="-5" shape="91.4,16.9 105.8,16.9 105.8,30.8 91.4,30.8 91.4,16.9"/>
    <poly id="bldg_53" type="building" color="208,200,186" fill="1" layer="-5" shape="90.5,42.8 107.3,42.8 107.3,57.2 90.5,57.2 90.5,42.8"/>
    <poly id="bldg_54" type="building" color="199,190,178" fill="1" layer="-5" shape="90.5,114.0 107.0,114.0 107.0,130.4 90.5,130.4 90.5,114.0"/>
    <poly id="bldg_55" type="building" color="212,198,182" fill="1" layer="-5" shape="87.2,139.3 103.7,139.3 103.7,153.7 87.2,153.7 87.2,139.3"/>
    <poly id="bldg_56" type="building" color="212,198,182" fill="1" layer="-5" shape="88.1,163.1 104.7,163.1 104.7,177.5 88.1,177.5 88.1,163.1"/>
    <poly id="bldg_57" type="building" color="212,198,182" fill="1" layer="-5" shape="87.9,187.2 104.8,187.2 104.8,201.7 87.9,201.7 87.9,187.2"/>
    <poly id="bldg_58" type="building" color="184,176,164" fill="1" layer="-5" shape="90.4,211.5 105.1,211.5 105.1,225.2 90.4,225.2 90.4,211.5"/>
    <poly id="bldg_59" type="building" color="199,190,178" fill="1" layer="-5" shape="112.5,-28.1 127.0,-28.1 127.0,-14.2 112.5,-14.2 112.5,-28.1"/>
    <poly id="bldg_60" type="building" color="208,200,186" fill="1" layer="-5" shape="113.7,-6.3 130.6,-6.3 130.6,7.7 113.7,7.7 113.7,-6.3"/>
    <poly id="bldg_61" type="building" color="199,190,178" fill="1" layer="-5" shape="113.2,17.5 126.8,17.5 126.8,34.2 113.2,34.2 113.2,17.5"/>
    <poly id="bldg_62" type="building" color="184,176,164" fill="1" layer="-5" shape="115.6,42.4 129.9,42.4 129.9,57.5 115.6,57.5 115.6,42.4"/>
    <poly id="bldg_63" type="building" color="199,190,178" fill="1" layer="-5" shape="111.8,90.7 127.2,90.7 127.2,106.5 111.8,106.5 111.8,90.7"/>
    <poly id="bldg_64" type="building" color="208,200,186" fill="1" layer="-5" shape="112.7,111.1 127.7,111.1 127.7,127.9 112.7,127.9 112.7,111.1"/>
    <poly id="bldg_65" type="building" color="212,198,182" fill="1" layer="-5" shape="113.7,137.4 129.2,137.4 129.2,151.0 113.7,151.0 113.7,137.4"/>
    <poly id="bldg_66" type="building" color="175,167,155" fill="1" layer="-5" shape="114.8,161.9 129.5,161.9 129.5,177.0 114.8,177.0 114.8,161.9"/>
    <poly id="park_67" type="park" color="152,190,138" fill="1" layer="-6" shape="112.7,187.5 129.0,187.5 129.0,201.7 112.7,201.7 112.7,187.5"/>
    <poly id="bldg_68" type="building" color="208,200,186" fill="1" layer="-5" shape="112.2,211.5 126.6,211.5 126.6,226.1 112.2,226.1 112.2,211.5"/>
    <poly id="park_69" type="park" color="152,190,138" fill="1" layer="-6" shape="135.5,-32.3 150.7,-32.3 150.7,-15.8 135.5,-15.8 135.5,-32.3"/>
    <poly id="bldg_70" type="building" color="196,188,176" fill="1" layer="-5" shape="136.6,39.3 152.6,39.3 152.6,55.9 136.6,55.9 136.6,39.3"/>
    <poly id="bldg_71" type="building" color="212,198,182" fill="1" layer="-5" shape="136.5,114.2 153.2,114.2 153.2,128.2 136.5,128.2 136.5,114.2"/>
    <poly id="bldg_72" type="building" color="199,190,178" fill="1" layer="-5" shape="137.7,209.3 154.1,209.3 154.1,224.8 137.7,224.8 137.7,209.3"/>
    <poly id="bldg_73" type="building" color="175,167,155" fill="1" layer="-5" shape="162.4,-31.4 178.5,-31.4 178.5,-15.0 162.4,-15.0 162.4,-31.4"/>
    <poly id="bldg_74" type="building" color="212,198,182" fill="1" layer="-5" shape="163.2,210.5 176.9,210.5 176.9,227.1 163.2,227.1 163.2,210.5"/>
    <poly id="bldg_75" type="building" color="212,198,182" fill="1" layer="-5" shape="182.9,-31.8 199.1,-31.8 199.1,-15.3 182.9,-15.3 182.9,-31.8"/>
    <poly id="bldg_76" type="building" color="184,176,164" fill="1" layer="-5" shape="185.0,-6.4 201.3,-6.4 201.3,10.3 185.0,10.3 185.0,-6.4"/>
    <poly id="bldg_77" type="building" color="208,200,186" fill="1" layer="-5" shape="185.4,15.2 200.1,15.2 200.1,31.1 185.4,31.1 185.4,15.2"/>
    <poly id="bldg_78" type="building" color="175,167,155" fill="1" layer="-5" shape="185.9,43.0 202.8,43.0 202.8,58.4 185.9,58.4 185.9,43.0"/>
    <poly id="bldg_79" type="building" color="212,198,182" fill="1" layer="-5" shape="185.4,112.0 200.3,112.0 200.3,126.4 185.4,126.4 185.4,112.0"/>
    <poly id="bldg_80" type="building" color="199,190,178" fill="1" layer="-5" shape="184.6,138.6 199.6,138.6 199.6,155.0 184.6,155.0 184.6,138.6"/>
    <poly id="bldg_81" type="building" color="199,190,178" fill="1" layer="-5" shape="185.8,163.1 200.6,163.1 200.6,178.9 185.8,178.9 185.8,163.1"/>
    <poly id="bldg_82" type="building" color="208,200,186" fill="1" layer="-5" shape="183.9,182.9 198.4,182.9 198.4,199.4 183.9,199.4 183.9,182.9"/>
    <poly id="bldg_83" type="building" color="184,176,164" fill="1" layer="-5" shape="183.7,210.5 199.3,210.5 199.3,224.8 183.7,224.8 183.7,210.5"/>
    <poly id="bldg_84" type="building" color="184,176,164" fill="1" layer="-5" shape="207.6,-29.6 223.7,-29.6 223.7,-15.6 207.6,-15.6 207.6,-29.6"/>
    <poly id="bldg_85" type="building" color="212,198,182" fill="1" layer="-5" shape="208.1,-8.8 222.8,-8.8 222.8,7.1 208.1,7.1 208.1,-8.8"/>
    <poly id="bldg_86" type="building" color="199,190,178" fill="1" layer="-5" shape="211.0,15.6 226.6,15.6 226.6,32.0 211.0,32.0 211.0,15.6"/>
    <poly id="bldg_87" type="building" color="196,188,176" fill="1" layer="-5" shape="210.3,43.4 225.9,43.4 225.9,57.4 210.3,57.4 210.3,43.4"/>
    <poly id="bldg_88" type="building" color="199,190,178" fill="1" layer="-5" shape="208.2,115.4 224.6,115.4 224.6,129.4 208.2,129.4 208.2,115.4"/>
    <poly id="bldg_89" type="building" color="199,190,178" fill="1" layer="-5" shape="211.5,137.7 225.6,137.7 225.6,151.9 211.5,151.9 211.5,137.7"/>
    <poly id="bldg_90" type="building" color="199,190,178" fill="1" layer="-5" shape="208.4,162.6 223.8,162.6 223.8,177.9 208.4,177.9 208.4,162.6"/>
    <poly id="bldg_91" type="building" color="212,198,182" fill="1" layer="-5" shape="210.2,183.9 224.6,183.9 224.6,200.7 210.2,200.7 210.2,183.9"/>
    <poly id="park_92" type="park" color="152,190,138" fill="1" layer="-6" shape="208.1,209.4 223.8,209.4 223.8,224.3 208.1,224.3 208.1,209.4"/>
    <poly id="bldg_93" type="building" color="199,190,178" fill="1" layer="-5" shape="231.6,-31.5 247.9,-31.5 247.9,-16.8 231.6,-16.8 231.6,-31.5"/>
    <poly id="bldg_94" type="building" color="212,198,182" fill="1" layer="-5" shape="234.8,-5.9 250.2,-5.9 250.2,8.3 234.8,8.3 234.8,-5.9"/>
    <poly id="bldg_95" type="building" color="196,188,176" fill="1" layer="-5" shape="233.0,18.1 248.9,18.1 248.9,33.9 233.0,33.9 233.0,18.1"/>
    <poly id="bldg_96" type="building" color="212,198,182" fill="1" layer="-5" shape="231.4,40.6 247.3,40.6 247.3,55.2 231.4,55.2 231.4,40.6"/>
    <poly id="bldg_97" type="building" color="184,176,164" fill="1" layer="-5" shape="233.1,113.6 247.7,113.6 247.7,128.0 233.1,128.0 233.1,113.6"/>
    <poly id="bldg_98" type="building" color="212,198,182" fill="1" layer="-5" shape="231.4,138.0 247.6,138.0 247.6,152.3 231.4,152.3 231.4,138.0"/>
    <poly id="bldg_99" type="building" color="208,200,186" fill="1" layer="-5" shape="232.0,161.5 248.2,161.5 248.2,177.2 232.0,177.2 232.0,161.5"/>
    <poly id="bldg_100" type="building" color="196,188,176" fill="1" layer="-5" shape="232.9,184.4 247.5,184.4 247.5,200.4 232.9,200.4 232.9,184.4"/>
    <poly id="bldg_101" type="building" color="212,198,182" fill="1" layer="-5" shape="234.9,210.2 250.9,210.2 250.9,224.2 234.9,224.2 234.9,210.2"/>
    <poly id="bldg_102" type="building" color="196,188,176" fill="1" layer="-5" shape="256.1,-32.6 270.7,-32.6 270.7,-17.3 256.1,-17.3 256.1,-32.6"/>
    <poly id="bldg_103" type="building" color="175,167,155" fill="1" layer="-5" shape="257.0,-4.5 271.0,-4.5 271.0,9.4 257.0,9.4 257.0,-4.5"/>
    <poly id="bldg_104" type="building" color="208,200,186" fill="1" layer="-5" shape="258.5,15.5 272.6,15.5 272.6,31.0 258.5,31.0 258.5,15.5"/>
    <poly id="bldg_105" type="building" color="175,167,155" fill="1" layer="-5" shape="255.6,41.9 271.3,41.9 271.3,58.2 255.6,58.2 255.6,41.9"/>
    <poly id="park_106" type="park" color="168,200,148" fill="1" layer="-6" shape="257.8,112.8 271.6,112.8 271.6,129.7 257.8,129.7 257.8,112.8"/>
    <poly id="bldg_107" type="building" color="208,200,186" fill="1" layer="-5" shape="258.6,136.9 272.4,136.9 272.4,151.3 258.6,151.3 258.6,136.9"/>
    <poly id="bldg_108" type="building" color="199,190,178" fill="1" layer="-5" shape="255.2,161.5 270.8,161.5 270.8,176.1 255.2,176.1 255.2,161.5"/>
    <poly id="bldg_109" type="building" color="199,190,178" fill="1" layer="-5" shape="257.2,187.2 271.1,187.2 271.1,201.6 257.2,201.6 257.2,187.2"/>
    <poly id="bldg_110" type="building" color="208,200,186" fill="1" layer="-5" shape="258.2,211.2 272.5,211.2 272.5,225.2 258.2,225.2 258.2,211.2"/>
    <poly id="bldg_111" type="building" color="199,190,178" fill="1" layer="-5" shape="283.7,-28.8 297.6,-28.8 297.6,-14.6 283.7,-14.6 283.7,-28.8"/>
    <poly id="bldg_112" type="building" color="212,198,182" fill="1" layer="-5" shape="282.8,-4.9 297.8,-4.9 297.8,10.3 282.8,10.3 282.8,-4.9"/>
    <poly id="park_113" type="park" color="152,190,138" fill="1" layer="-6" shape="283.1,18.1 298.4,18.1 298.4,31.9 283.1,31.9 283.1,18.1"/>
    <poly id="bldg_114" type="building" color="175,167,155" fill="1" layer="-5" shape="283.1,42.2 296.8,42.2 296.8,56.6 283.1,56.6 283.1,42.2"/>
    <poly id="bldg_115" type="building" color="184,176,164" fill="1" layer="-5" shape="282.2,114.4 296.4,114.4 296.4,129.7 282.2,129.7 282.2,114.4"/>
    <poly id="park_116" type="park" color="152,190,138" fill="1" layer="-6" shape="279.8,137.7 295.6,137.7 295.6,153.0 279.8,153.0 279.8,137.7"/>
    <poly id="bldg_117" type="building" color="212,198,182" fill="1" layer="-5" shape="281.7,161.2 295.6,161.2 295.6,175.4 281.7,175.4 281.7,161.2"/>
    <poly id="bldg_118" type="building" color="184,176,164" fill="1" layer="-5" shape="280.0,187.0 296.3,187.0 296.3,202.5 280.0,202.5 280.0,187.0"/>
    <poly id="bldg_119" type="building" color="196,188,176" fill="1" layer="-5" shape="279.9,207.2 296.1,207.2 296.1,223.7 279.9,223.7 279.9,207.2"/>
    <poly id="bldg_120" type="building" color="212,198,182" fill="1" layer="-5" shape="306.1,-29.9 321.1,-29.9 321.1,-15.7 306.1,-15.7 306.1,-29.9"/>
    <poly id="bldg_121" type="building" color="212,198,182" fill="1" layer="-5" shape="306.4,-5.7 320.6,-5.7 320.6,9.8 306.4,9.8 306.4,-5.7"/>
    <poly id="bldg_122" type="building" color="199,190,178" fill="1" layer="-5" shape="307.7,17.1 321.4,17.1 321.4,32.8 307.7,32.8 307.7,17.1"/>
    <poly id="bldg_123" type="building" color="196,188,176" fill="1" layer="-5" shape="303.9,42.2 319.4,42.2 319.4,56.2 303.9,56.2 303.9,42.2"/>
    <poly id="bldg_124" type="building" color="208,200,186" fill="1" layer="-5" shape="306.6,112.8 321.1,112.8 321.1,129.3 306.6,129.3 306.6,112.8"/>
    <poly id="bldg_125" type="building" color="208,200,186" fill="1" layer="-5" shape="305.7,135.8 320.0,135.8 320.0,151.4 305.7,151.4 305.7,135.8"/>
    <poly id="bldg_126" type="building" color="175,167,155" fill="1" layer="-5" shape="306.3,160.6 322.6,160.6 322.6,175.6 306.3,175.6 306.3,160.6"/>
    <poly id="bldg_127" type="building" color="199,190,178" fill="1" layer="-5" shape="304.0,182.8 320.1,182.8 320.1,199.2 304.0,199.2 304.0,182.8"/>
    <poly id="bldg_128" type="building" color="175,167,155" fill="1" layer="-5" shape="305.2,208.2 320.7,208.2 320.7,223.0 305.2,223.0 305.2,208.2"/>
    <poly id="bldg_129" type="building" color="212,198,182" fill="1" layer="-5" shape="328.2,-29.7 344.8,-29.7 344.8,-12.8 328.2,-12.8 328.2,-29.7"/>
    <poly id="bldg_130" type="building" color="212,198,182" fill="1" layer="-5" shape="329.1,-6.0 342.8,-6.0 342.8,10.2 329.1,10.2 329.1,-6.0"/>
    <poly id="bldg_131" type="building" color="196,188,176" fill="1" layer="-5" shape="328.3,17.2 344.7,17.2 344.7,34.1 328.3,34.1 328.3,17.2"/>
    <poly id="bldg_132" type="building" color="196,188,176" fill="1" layer="-5" shape="328.1,43.9 342.9,43.9 342.9,57.8 328.1,57.8 328.1,43.9"/>
    <poly id="bldg_133" type="building" color="199,190,178" fill="1" layer="-5" shape="330.0,111.2 345.2,111.2 345.2,128.1 330.0,128.1 330.0,111.2"/>
    <poly id="bldg_134" type="building" color="184,176,164" fill="1" layer="-5" shape="329.2,135.4 343.9,135.4 343.9,151.3 329.2,151.3 329.2,135.4"/>
    <poly id="bldg_135" type="building" color="208,200,186" fill="1" layer="-5" shape="329.9,162.8 345.1,162.8 345.1,178.3 329.9,178.3 329.9,162.8"/>
    <poly id="bldg_136" type="building" color="196,188,176" fill="1" layer="-5" shape="329.0,186.6 346.0,186.6 346.0,202.8 329.0,202.8 329.0,186.6"/>
    <poly id="bldg_137" type="building" color="196,188,176" fill="1" layer="-5" shape="331.1,210.7 345.0,210.7 345.0,224.9 331.1,224.9 331.1,210.7"/>
    <poly id="bldg_138" type="building" color="175,167,155" fill="1" layer="-5" shape="351.9,-29.3 366.5,-29.3 366.5,-14.4 351.9,-14.4 351.9,-29.3"/>
    <poly id="bldg_139" type="building" color="212,198,182" fill="1" layer="-5" shape="353.5,-5.4 367.8,-5.4 367.8,8.8 353.5,8.8 353.5,-5.4"/>
    <poly id="bldg_140" type="building" color="184,176,164" fill="1" layer="-5" shape="353.1,16.9 369.8,16.9 369.8,31.0 353.1,31.0 353.1,16.9"/>
    <poly id="bldg_141" type="building" color="175,167,155" fill="1" layer="-5" shape="352.5,42.1 369.2,42.1 369.2,57.3 352.5,57.3 352.5,42.1"/>
    <poly id="bldg_142" type="building" color="212,198,182" fill="1" layer="-5" shape="354.3,112.5 368.8,112.5 368.8,128.9 354.3,128.9 354.3,112.5"/>
    <poly id="bldg_143" type="building" color="199,190,178" fill="1" layer="-5" shape="355.0,136.0 369.9,136.0 369.9,150.8 355.0,150.8 355.0,136.0"/>
    <poly id="bldg_144" type="building" color="199,190,178" fill="1" layer="-5" shape="352.3,163.6 368.1,163.6 368.1,178.2 352.3,178.2 352.3,163.6"/>
    <poly id="bldg_145" type="building" color="184,176,164" fill="1" layer="-5" shape="353.8,186.8 370.5,186.8 370.5,203.0 353.8,203.0 353.8,186.8"/>
    <poly id="bldg_146" type="building" color="184,176,164" fill="1" layer="-5" shape="353.9,208.7 370.3,208.7 370.3,223.1 353.9,223.1 353.9,208.7"/>
    <poly id="bldg_147" type="building" color="199,190,178" fill="1" layer="-5" shape="377.8,-30.3 393.6,-30.3 393.6,-13.9 377.8,-13.9 377.8,-30.3"/>
    <poly id="bldg_148" type="building" color="196,188,176" fill="1" layer="-5" shape="378.0,-7.5 393.1,-7.5 393.1,8.0 378.0,8.0 378.0,-7.5"/>
    <poly id="bldg_149" type="building" color="184,176,164" fill="1" layer="-5" shape="379.1,17.2 394.1,17.2 394.1,31.4 379.1,31.4 379.1,17.2"/>
    <poly id="bldg_150" type="building" color="212,198,182" fill="1" layer="-5" shape="376.9,43.4 393.3,43.4 393.3,57.9 376.9,57.9 376.9,43.4"/>
    <poly id="bldg_151" type="building" color="196,188,176" fill="1" layer="-5" shape="378.6,64.0 395.1,64.0 395.1,80.3 378.6,80.3 378.6,64.0"/>
    <poly id="bldg_152" type="building" color="175,167,155" fill="1" layer="-5" shape="375.3,90.8 391.8,90.8 391.8,106.9 375.3,106.9 375.3,90.8"/>
    <poly id="bldg_153" type="building" color="199,190,178" fill="1" layer="-5" shape="377.6,114.5 391.3,114.5 391.3,129.9 377.6,129.9 377.6,114.5"/>
    <poly id="bldg_154" type="building" color="199,190,178" fill="1" layer="-5" shape="378.5,136.2 393.4,136.2 393.4,151.9 378.5,151.9 378.5,136.2"/>
    <poly id="bldg_155" type="building" color="208,200,186" fill="1" layer="-5" shape="375.6,159.3 392.2,159.3 392.2,174.9 375.6,174.9 375.6,159.3"/>
    <poly id="bldg_156" type="building" color="196,188,176" fill="1" layer="-5" shape="378.0,185.5 393.2,185.5 393.2,201.5 378.0,201.5 378.0,185.5"/>
    <poly id="park_157" type="park" color="168,200,148" fill="1" layer="-6" shape="376.2,211.1 390.9,211.1 390.9,226.4 376.2,226.4 376.2,211.1"/>
</additional>
