<?xml version="1.0" encoding="UTF-8"?>

<!-- generated on 2026-06-19T15:27:00.162762+00:00 by Eclipse SUMO netconvert 1.26.0
<netconvertConfiguration xmlns:xsi="http://www.w3.org/2001/XMLSchema-instance" xsi:noNamespaceSchemaLocation="http://sumo.dlr.de/xsd/netconvertConfiguration.xsd">

    <input>
        <node-files value="C:/Users/tahae/AppData/Local/Temp/cross_build/c.nod.xml"/>
        <edge-files value="C:/Users/tahae/AppData/Local/Temp/cross_build/c.edg.xml"/>
        <connection-files value="C:/Users/tahae/AppData/Local/Temp/cross_build/c.con.xml"/>
        <tllogic-files value="C:/Users/tahae/AppData/Local/Temp/cross_build/custom.tll.xml"/>
    </input>

    <output>
        <output-file value="C:/Users/tahae/AppData/Local/Temp/cross_build/env.net.xml"/>
    </output>

    <building_defaults>
        <default.sidewalk-width value="2.0"/>
    </building_defaults>

    <pedestrian>
        <sidewalks.guess value="true"/>
        <crossings.guess value="true"/>
        <walkingareas value="true"/>
    </pedestrian>

</netconvertConfiguration>
-->

<net version="1.20" junctionCornerDetail="5" walkingareas="true" limitTurnSpeed="5.50" xmlns:xsi="http://www.w3.org/2001/XMLSchema-instance" xsi:noNamespaceSchemaLocation="http://sumo.dlr.de/xsd/net_file.xsd">

    <location netOffset="153.96,91.50" convBoundary="0.00,0.00,321.40,224.23" origBoundary="-10000000000.00,-10000000000.00,10000000000.00,10000000000.00" projParameter="!"/>

    <edge id=":J3_w0" function="walkingarea">
        <lane id=":J3_w0_0" index="0" allow="pedestrian" speed="2.78" length="14.80" width="2.00" shape="-0.07,96.79 -0.10,94.79 0.10,111.59 0.07,109.59"/>
    </edge>
    <edge id=":J4_0" function="internal">
        <lane id=":J4_0_0" index="0" disallow="pedestrian" speed="6.50" length="4.77" shape="142.12,111.97 141.76,109.52 140.69,107.78 140.48,107.65"/>
    </edge>
    <edge id=":J4_1" function="internal">
        <lane id=":J4_1_0" index="0" disallow="pedestrian" speed="13.89" length="20.93" shape="142.12,111.97 142.11,91.03"/>
        <lane id=":J4_1_1" index="1" disallow="pedestrian" speed="13.89" length="20.93" shape="145.32,111.96 145.31,91.04"/>
    </edge>
    <edge id=":J4_3" function="internal">
        <lane id=":J4_3_0" index="0" disallow="pedestrian" speed="9.25" length="5.16" shape="145.32,111.96 146.02,106.84"/>
    </edge>
    <edge id=":J4_16" function="internal">
        <lane id=":J4_16_0" index="0" disallow="pedestrian" speed="6.50" length="4.28" shape="140.48,107.65 138.93,106.74 136.47,106.42"/>
    </edge>
    <edge id=":J4_17" function="internal">
        <lane id=":J4_17_0" index="0" disallow="pedestrian" speed="9.25" length="14.25" shape="146.02,106.84 146.04,106.68 148.28,102.91 152.04,100.65 157.31,99.89"/>
    </edge>
    <edge id=":J4_4" function="internal">
        <lane id=":J4_4_0" index="0" disallow="pedestrian" speed="6.50" length="4.77" shape="157.31,106.29 154.85,106.65 153.10,107.70 152.98,107.91"/>
    </edge>
    <edge id=":J4_5" function="internal">
        <lane id=":J4_5_0" index="0" disallow="pedestrian" speed="13.89" length="20.86" shape="157.31,106.29 136.47,106.42"/>
        <lane id=":J4_5_1" index="1" disallow="pedestrian" speed="13.89" length="20.86" shape="157.31,103.09 136.43,103.22"/>
    </edge>
    <edge id=":J4_7" function="internal">
        <lane id=":J4_7_0" index="0" disallow="pedestrian" speed="9.25" length="4.83" shape="157.31,103.09 152.53,102.41"/>
    </edge>
    <edge id=":J4_18" function="internal">
        <lane id=":J4_18_0" index="0" disallow="pedestrian" speed="6.50" length="4.28" shape="152.98,107.91 152.06,109.46 151.72,111.92"/>
    </edge>
    <edge id=":J4_19" function="internal">
        <lane id=":J4_19_0" index="0" disallow="pedestrian" speed="9.25" length="14.58" shape="152.53,102.41 152.04,102.34 148.28,100.09 146.04,96.32 145.31,91.04"/>
    </edge>
    <edge id=":J4_8" function="internal">
        <lane id=":J4_8_0" index="0" disallow="pedestrian" speed="6.50" length="4.77" shape="151.71,91.08 152.05,93.54 153.10,95.29 153.30,95.42"/>
    </edge>
    <edge id=":J4_9" function="internal">
        <lane id=":J4_9_0" index="0" disallow="pedestrian" speed="13.89" length="20.86" shape="151.71,91.08 151.72,111.92"/>
        <lane id=":J4_9_1" index="1" disallow="pedestrian" speed="13.89" length="20.86" shape="148.51,91.06 148.52,111.94"/>
    </edge>
    <edge id=":J4_11" function="internal">
        <lane id=":J4_11_0" index="0" disallow="pedestrian" speed="9.34" length="4.84" shape="148.51,91.06 147.81,95.85"/>
    </edge>
    <edge id=":J4_20" function="internal">
        <lane id=":J4_20_0" index="0" disallow="pedestrian" speed="6.50" length="4.28" shape="153.30,95.42 154.85,96.34 157.30,96.69"/>
    </edge>
    <edge id=":J4_21" function="internal">
        <lane id=":J4_21_0" index="0" disallow="pedestrian" speed="9.34" length="14.63" shape="147.81,95.85 147.73,96.33 145.46,100.11 141.70,102.41 136.43,103.22"/>
    </edge>
    <edge id=":J4_12" function="internal">
        <lane id=":J4_12_0" index="0" disallow="pedestrian" speed="6.62" length="5.01" shape="136.36,96.82 138.87,96.43 140.66,95.34 140.85,95.02"/>
    </edge>
    <edge id=":J4_13" function="internal">
        <lane id=":J4_13_0" index="0" disallow="pedestrian" speed="13.89" length="20.93" shape="136.36,96.82 157.30,96.69"/>
        <lane id=":J4_13_1" index="1" disallow="pedestrian" speed="13.89" length="20.93" shape="136.40,100.02 157.31,99.89"/>
    </edge>
    <edge id=":J4_15" function="internal">
        <lane id=":J4_15_0" index="0" disallow="pedestrian" speed="9.25" length="5.16" shape="136.40,100.02 141.51,100.69"/>
    </edge>
    <edge id=":J4_22" function="internal">
        <lane id=":J4_22_0" index="0" disallow="pedestrian" speed="6.62" length="4.27" shape="140.85,95.02 141.74,93.54 142.11,91.03"/>
    </edge>
    <edge id=":J4_23" function="internal">
        <lane id=":J4_23_0" index="0" disallow="pedestrian" speed="9.25" length="14.25" shape="141.51,100.69 141.67,100.71 145.45,102.93 147.74,106.67 148.52,111.94"/>
    </edge>
    <edge id=":J4_c0" function="crossing" crossingEdges="out_N in_N">
        <lane id=":J4_c0_0" index="0" allow="pedestrian" speed="2.78" length="12.80" width="4.00" shape="153.31,109.91 140.51,109.98" outlineShape="153.32,111.91 140.42,111.99 140.40,110.76 140.06,109.76 139.50,108.99 138.72,108.44 138.39,108.33 140.50,107.98 153.30,107.91 155.41,108.23 155.08,108.34 154.31,108.90 153.76,109.68 153.43,110.68"/>
    </edge>
    <edge id=":J4_c1" function="crossing" crossingEdges="out_E int_E">
        <lane id=":J4_c1_0" index="0" allow="pedestrian" speed="2.78" length="12.80" width="4.00" shape="155.30,95.10 155.31,107.90" outlineShape="157.30,95.09 157.31,107.89 157.31,107.99 156.09,108.01 155.08,108.34 154.31,108.90 153.76,109.68 153.65,110.01 153.31,107.90 153.30,95.10 153.64,92.99 153.75,93.31 154.30,94.09 155.08,94.65 156.08,94.98"/>
    </edge>
    <edge id=":J4_c2" function="crossing" crossingEdges="out_S in_S">
        <lane id=":J4_c2_0" index="0" allow="pedestrian" speed="2.78" length="12.80" width="4.00" shape="140.50,93.02 153.30,93.09" outlineShape="140.51,91.02 153.31,91.09 153.42,92.31 153.75,93.31 154.30,94.09 155.08,94.65 155.40,94.76 153.29,95.09 140.49,95.02 138.42,94.81 138.65,94.73 139.46,94.15 140.04,93.33 140.39,92.29"/>
    </edge>
    <edge id=":J4_c3" function="crossing" crossingEdges="out_W in_W">
        <lane id=":J4_c3_0" index="0" allow="pedestrian" speed="2.78" length="12.80" width="4.00" shape="138.49,108.00 138.34,95.20" outlineShape="136.49,108.02 136.34,95.22 137.61,95.09 138.65,94.73 139.46,94.15 140.04,93.33 140.12,93.11 140.34,95.17 140.49,107.97 140.18,110.09 140.06,109.76 139.50,108.99 138.72,108.44 137.71,108.12"/>
    </edge>
    <edge id=":J4_w0" function="walkingarea">
        <lane id=":J4_w0_0" index="0" allow="pedestrian" speed="2.78" length="3.30" width="4.00" shape="136.49,108.02 136.51,110.02 138.52,112.00 140.52,111.98 140.40,110.76 140.06,109.76 139.50,108.99 138.72,108.44 137.71,108.12"/>
    </edge>
    <edge id=":J4_w1" function="walkingarea">
        <lane id=":J4_w1_0" index="0" allow="pedestrian" speed="2.78" length="3.30" width="4.00" shape="153.32,111.91 155.32,111.90 157.31,109.89 157.31,107.89 156.09,108.01 155.08,108.34 154.31,108.90 153.76,109.68 153.43,110.68"/>
    </edge>
    <edge id=":J4_w2" function="walkingarea">
        <lane id=":J4_w2_0" index="0" allow="pedestrian" speed="2.78" length="3.30" width="4.00" shape="157.30,95.09 157.30,93.09 155.31,91.10 153.31,91.09 153.42,92.31 153.75,93.31 154.30,94.09 155.08,94.65 156.08,94.98"/>
    </edge>
    <edge id=":J4_w3" function="walkingarea">
        <lane id=":J4_w3_0" index="0" allow="pedestrian" speed="2.78" length="3.46" width="4.00" shape="140.51,91.02 138.51,91.01 136.32,93.22 136.34,95.22 137.61,95.09 138.65,94.73 139.46,94.15 140.04,93.33 140.39,92.29"/>
    </edge>
    <edge id=":J5_w0" function="walkingarea">
        <lane id=":J5_w0_0" index="0" allow="pedestrian" speed="2.78" length="14.80" width="2.00" shape="321.40,107.80 321.40,109.80 321.40,93.00 321.40,95.00"/>
    </edge>
    <edge id=":J6_w0" function="walkingarea">
        <lane id=":J6_w0_0" index="0" allow="pedestrian" speed="2.78" length="14.80" width="2.00" shape="141.20,224.27 139.20,224.28 156.00,224.18 154.00,224.19"/>
    </edge>
    <edge id=":J7_w0" function="walkingarea">
        <lane id=":J7_w0_0" index="0" allow="pedestrian" speed="2.78" length="14.80" width="2.00" shape="153.77,0.03 155.77,0.04 138.97,-0.04 140.97,-0.03"/>
    </edge>

    <edge id="in_N" from="J6" to="J4" priority="-1">
        <lane id="in_N_0" index="0" allow="pedestrian" speed="13.89" length="112.29" width="2.00" shape="140.20,224.27 139.52,111.99"/>
        <lane id="in_N_1" index="1" disallow="pedestrian" speed="13.89" length="112.29" shape="142.80,224.26 142.12,111.97"/>
        <lane id="in_N_2" index="2" disallow="pedestrian" speed="13.89" length="112.29" shape="146.00,224.24 145.32,111.96"/>
    </edge>
    <edge id="in_S" from="J7" to="J4" priority="-1">
        <lane id="in_S_0" index="0" allow="pedestrian" speed="13.89" length="91.05" width="2.00" shape="154.77,0.04 154.31,91.09"/>
        <lane id="in_S_1" index="1" disallow="pedestrian" speed="13.89" length="91.05" shape="152.17,0.02 151.71,91.08"/>
        <lane id="in_S_2" index="2" disallow="pedestrian" speed="13.89" length="91.05" shape="148.97,0.01 148.51,91.06"/>
    </edge>
    <edge id="in_W" from="J3" to="J4" priority="-1">
        <lane id="in_W_0" index="0" allow="pedestrian" speed="13.89" length="136.42" width="2.00" shape="-0.09,95.79 136.33,94.22"/>
        <lane id="in_W_1" index="1" disallow="pedestrian" speed="13.89" length="136.42" shape="-0.06,98.39 136.36,96.82"/>
        <lane id="in_W_2" index="2" disallow="pedestrian" speed="13.89" length="136.42" shape="-0.02,101.59 136.40,100.02"/>
    </edge>
    <edge id="int_E" from="J5" to="J4" priority="-1">
        <lane id="int_E_0" index="0" allow="pedestrian" speed="13.89" length="164.09" width="2.00" shape="321.40,108.80 157.31,108.89"/>
        <lane id="int_E_1" index="1" disallow="pedestrian" speed="13.89" length="164.09" shape="321.40,106.20 157.31,106.29"/>
        <lane id="int_E_2" index="2" disallow="pedestrian" speed="13.89" length="164.09" shape="321.40,103.00 157.31,103.09"/>
    </edge>
    <edge id="out_E" from="J4" to="J5" priority="-1">
        <lane id="out_E_0" index="0" allow="pedestrian" speed="13.89" length="164.09" width="2.00" shape="157.30,94.09 321.40,94.00"/>
        <lane id="out_E_1" index="1" disallow="pedestrian" speed="13.89" length="164.09" shape="157.30,96.69 321.40,96.60"/>
        <lane id="out_E_2" index="2" disallow="pedestrian" speed="13.89" length="164.09" shape="157.31,99.89 321.40,99.80"/>
    </edge>
    <edge id="out_N" from="J4" to="J6" priority="-1">
        <lane id="out_N_0" index="0" allow="pedestrian" speed="13.89" length="112.29" width="2.00" shape="154.32,111.90 155.00,224.19"/>
        <lane id="out_N_1" index="1" disallow="pedestrian" speed="13.89" length="112.29" shape="151.72,111.92 152.40,224.20"/>
        <lane id="out_N_2" index="2" disallow="pedestrian" speed="13.89" length="112.29" shape="148.52,111.94 149.20,224.22"/>
    </edge>
    <edge id="out_S" from="J4" to="J7" priority="-1">
        <lane id="out_S_0" index="0" allow="pedestrian" speed="13.89" length="91.05" width="2.00" shape="139.51,91.02 139.97,-0.04"/>
        <lane id="out_S_1" index="1" disallow="pedestrian" speed="13.89" length="91.05" shape="142.11,91.03 142.57,-0.02"/>
        <lane id="out_S_2" index="2" disallow="pedestrian" speed="13.89" length="91.05" shape="145.31,91.04 145.77,-0.01"/>
    </edge>
    <edge id="out_W" from="J4" to="J3" priority="-1">
        <lane id="out_W_0" index="0" allow="pedestrian" speed="13.89" length="136.42" width="2.00" shape="136.50,109.02 0.09,110.59"/>
        <lane id="out_W_1" index="1" disallow="pedestrian" speed="13.89" length="136.42" shape="136.47,106.42 0.06,107.99"/>
        <lane id="out_W_2" index="2" disallow="pedestrian" speed="13.89" length="136.42" shape="136.43,103.22 0.02,104.79"/>
    </edge>

    <tlLogic id="J4" type="static" programID="0" offset="0">
        <phase duration="42" state="GGGgrrrrGGGgrrrrrrrr"/>
        <phase duration="3"  state="yyyyrrrryyyyrrrrrrrr"/>
        <phase duration="42" state="rrrrGGGgrrrrGGGgrrrr"/>
        <phase duration="3"  state="rrrryyyyrrrryyyyrrrr"/>
    </tlLogic>

    <junction id="J3" type="dead_end" x="0.00" y="103.19" incLanes="out_W_0 out_W_1 out_W_2" intLanes="" shape="0.00,103.19 0.10,111.59 0.00,103.19"/>
    <junction id="J4" type="traffic_light" x="146.86" y="101.50" incLanes="in_N_0 in_N_1 in_N_2 int_E_0 int_E_1 int_E_2 in_S_0 in_S_1 in_S_2 in_W_0 in_W_1 in_W_2 :J4_w1_0 :J4_w2_0 :J4_w3_0 :J4_w0_0" intLanes=":J4_16_0 :J4_1_0 :J4_1_1 :J4_17_0 :J4_18_0 :J4_5_0 :J4_5_1 :J4_19_0 :J4_20_0 :J4_9_0 :J4_9_1 :J4_21_0 :J4_22_0 :J4_13_0 :J4_13_1 :J4_23_0 :J4_c0_0 :J4_c1_0 :J4_c2_0 :J4_c3_0" shape="138.52,112.00 155.32,111.90 155.54,110.78 155.81,110.39 156.20,110.12 156.70,109.95 157.31,109.89 157.30,93.09 156.19,92.87 155.80,92.59 155.53,92.21 155.36,91.71 155.31,91.10 138.51,91.01 138.26,92.23 137.96,92.66 137.53,92.96 136.99,93.15 136.32,93.22 136.51,110.02 137.62,110.23 138.01,110.50 138.29,110.89 138.46,111.39">
        <request index="0"  response="10010000000001100000" foes="10010000000001100000" cont="1"/>
        <request index="1"  response="01011111000011100000" foes="01011111100011100000" cont="0"/>
        <request index="2"  response="01011111000011100000" foes="01011111100011100000" cont="0"/>
        <request index="3"  response="00111110011011100000" foes="00111110011011100000" cont="1"/>
        <request index="4"  response="00110000000000000000" foes="00110000011000000000" cont="1"/>
        <request index="5"  response="10100000000000001001" foes="10101000111000001111" cont="0"/>
        <request index="6"  response="10100000100000001000" foes="10101000111000001111" cont="0"/>
        <request index="7"  response="01100110100000001000" foes="01100110111000001110" cont="1"/>
        <request index="8"  response="01100110000000000000" foes="01100110000000000000" cont="1"/>
        <request index="9"  response="01011110000011110000" foes="01011110000011111000" cont="0"/>
        <request index="10" response="01011110000011110000" foes="01011110000011111000" cont="0"/>
        <request index="11" response="11001110000011100110" foes="11001110000011100110" cont="1"/>
        <request index="12" response="11000000000000000000" foes="11000000000000000110" cont="1"/>
        <request index="13" response="10100000100100000000" foes="10100000111110001110" cont="0"/>
        <request index="14" response="10100000100000001000" foes="10100000111110001110" cont="0"/>
        <request index="15" response="10010000100001101000" foes="10010000111001101110" cont="1"/>
        <request index="16" response="00000000000000000000" foes="00001000011000011111" cont="0"/>
        <request index="17" response="00000000000000000000" foes="00000110000111111000" cont="0"/>
        <request index="18" response="00000000000000000000" foes="00000001111110000110" cont="0"/>
        <request index="19" response="00000000000000000000" foes="00001111100001100001" cont="0"/>
    </junction>
    <junction id="J5" type="dead_end" x="321.40" y="101.40" incLanes="out_E_0 out_E_1 out_E_2" intLanes="" shape="321.40,101.40 321.40,93.00 321.40,101.40"/>
    <junction id="J6" type="dead_end" x="147.60" y="224.23" incLanes="out_N_0 out_N_1 out_N_2" intLanes="" shape="147.60,224.23 156.00,224.18 147.60,224.23"/>
    <junction id="J7" type="dead_end" x="147.37" y="0.00" incLanes="out_S_0 out_S_1 out_S_2" intLanes="" shape="147.37,0.00 138.97,-0.04 147.37,0.00"/>

    <junction id=":J4_16_0" type="internal" x="140.48" y="107.65" incLanes=":J4_0_0" intLanes=":J4_5_0 :J4_5_1 :J4_11_0 :J4_c0_0 :J4_c3_0"/>
    <junction id=":J4_17_0" type="internal" x="146.02" y="106.84" incLanes=":J4_3_0 in_S_1 in_S_2" intLanes=":J4_5_0 :J4_5_1 :J4_7_0 :J4_8_0 :J4_9_0 :J4_9_1 :J4_13_0 :J4_13_1 :J4_15_0 :J4_c0_0 :J4_c1_0"/>
    <junction id=":J4_18_0" type="internal" x="152.98" y="107.91" incLanes=":J4_4_0" intLanes=":J4_9_0 :J4_9_1 :J4_15_0 :J4_c0_0 :J4_c1_0"/>
    <junction id=":J4_19_0" type="internal" x="152.53" y="102.41" incLanes=":J4_7_0 in_W_1 in_W_2" intLanes=":J4_1_0 :J4_1_1 :J4_3_0 :J4_9_0 :J4_9_1 :J4_11_0 :J4_12_0 :J4_13_0 :J4_13_1 :J4_c1_0 :J4_c2_0"/>
    <junction id=":J4_20_0" type="internal" x="153.30" y="95.42" incLanes=":J4_8_0" intLanes=":J4_3_0 :J4_13_0 :J4_13_1 :J4_c1_0 :J4_c2_0"/>
    <junction id=":J4_21_0" type="internal" x="147.81" y="95.85" incLanes=":J4_11_0 in_N_1 in_N_2" intLanes=":J4_0_0 :J4_1_0 :J4_1_1 :J4_5_0 :J4_5_1 :J4_7_0 :J4_13_0 :J4_13_1 :J4_15_0 :J4_c2_0 :J4_c3_0"/>
    <junction id=":J4_22_0" type="internal" x="140.85" y="95.02" incLanes=":J4_12_0" intLanes=":J4_1_0 :J4_1_1 :J4_7_0 :J4_c2_0 :J4_c3_0"/>
    <junction id=":J4_23_0" type="internal" x="141.51" y="100.69" incLanes=":J4_15_0 int_E_1 int_E_2" intLanes=":J4_1_0 :J4_1_1 :J4_3_0 :J4_4_0 :J4_5_0 :J4_5_1 :J4_9_0 :J4_9_1 :J4_11_0 :J4_c0_0 :J4_c3_0"/>

    <connection from="in_N" to="out_W" fromLane="1" toLane="1" via=":J4_0_0" tl="J4" linkIndex="0" dir="r" state="o"/>
    <connection from="in_N" to="out_S" fromLane="1" toLane="1" via=":J4_1_0" tl="J4" linkIndex="1" dir="s" state="o"/>
    <connection from="in_N" to="out_S" fromLane="2" toLane="2" via=":J4_1_1" tl="J4" linkIndex="2" dir="s" state="o"/>
    <connection from="in_N" to="out_E" fromLane="2" toLane="2" via=":J4_3_0" tl="J4" linkIndex="3" dir="l" state="o"/>
    <connection from="in_S" to="out_E" fromLane="1" toLane="1" via=":J4_8_0" tl="J4" linkIndex="8" dir="r" state="o"/>
    <connection from="in_S" to="out_N" fromLane="1" toLane="1" via=":J4_9_0" tl="J4" linkIndex="9" dir="s" state="o"/>
    <connection from="in_S" to="out_N" fromLane="2" toLane="2" via=":J4_9_1" tl="J4" linkIndex="10" dir="s" state="o"/>
    <connection from="in_S" to="out_W" fromLane="2" toLane="2" via=":J4_11_0" tl="J4" linkIndex="11" dir="l" state="o"/>
    <connection from="in_W" to="out_S" fromLane="1" toLane="1" via=":J4_12_0" tl="J4" linkIndex="12" dir="r" state="o"/>
    <connection from="in_W" to="out_E" fromLane="1" toLane="1" via=":J4_13_0" tl="J4" linkIndex="13" dir="s" state="o"/>
    <connection from="in_W" to="out_E" fromLane="2" toLane="2" via=":J4_13_1" tl="J4" linkIndex="14" dir="s" state="o"/>
    <connection from="in_W" to="out_N" fromLane="2" toLane="2" via=":J4_15_0" tl="J4" linkIndex="15" dir="l" state="o"/>
    <connection from="int_E" to="out_N" fromLane="1" toLane="1" via=":J4_4_0" tl="J4" linkIndex="4" dir="r" state="o"/>
    <connection from="int_E" to="out_W" fromLane="1" toLane="1" via=":J4_5_0" tl="J4" linkIndex="5" dir="s" state="o"/>
    <connection from="int_E" to="out_W" fromLane="2" toLane="2" via=":J4_5_1" tl="J4" linkIndex="6" dir="s" state="o"/>
    <connection from="int_E" to="out_S" fromLane="2" toLane="2" via=":J4_7_0" tl="J4" linkIndex="7" dir="l" state="o"/>

    <connection from=":J4_0" to="out_W" fromLane="0" toLane="1" via=":J4_16_0" dir="r" state="m"/>
    <connection from=":J4_16" to="out_W" fromLane="0" toLane="1" dir="r" state="m"/>
    <connection from=":J4_1" to="out_S" fromLane="0" toLane="1" dir="s" state="M"/>
    <connection from=":J4_1" to="out_S" fromLane="1" toLane="2" dir="s" state="M"/>
    <connection from=":J4_3" to="out_E" fromLane="0" toLane="2" via=":J4_17_0" dir="l" state="m"/>
    <connection from=":J4_17" to="out_E" fromLane="0" toLane="2" dir="l" state="m"/>
    <connection from=":J4_4" to="out_N" fromLane="0" toLane="1" via=":J4_18_0" dir="r" state="m"/>
    <connection from=":J4_18" to="out_N" fromLane="0" toLane="1" dir="r" state="m"/>
    <connection from=":J4_5" to="out_W" fromLane="0" toLane="1" dir="s" state="M"/>
    <connection from=":J4_5" to="out_W" fromLane="1" toLane="2" dir="s" state="M"/>
    <connection from=":J4_7" to="out_S" fromLane="0" toLane="2" via=":J4_19_0" dir="l" state="m"/>
    <connection from=":J4_19" to="out_S" fromLane="0" toLane="2" dir="l" state="m"/>
    <connection from=":J4_8" to="out_E" fromLane="0" toLane="1" via=":J4_20_0" dir="r" state="m"/>
    <connection from=":J4_20" to="out_E" fromLane="0" toLane="1" dir="r" state="m"/>
    <connection from=":J4_9" to="out_N" fromLane="0" toLane="1" dir="s" state="M"/>
    <connection from=":J4_9" to="out_N" fromLane="1" toLane="2" dir="s" state="M"/>
    <connection from=":J4_11" to="out_W" fromLane="0" toLane="2" via=":J4_21_0" dir="l" state="m"/>
    <connection from=":J4_21" to="out_W" fromLane="0" toLane="2" dir="l" state="m"/>
    <connection from=":J4_12" to="out_S" fromLane="0" toLane="1" via=":J4_22_0" dir="r" state="m"/>
    <connection from=":J4_22" to="out_S" fromLane="0" toLane="1" dir="r" state="m"/>
    <connection from=":J4_13" to="out_E" fromLane="0" toLane="1" dir="s" state="M"/>
    <connection from=":J4_13" to="out_E" fromLane="1" toLane="2" dir="s" state="M"/>
    <connection from=":J4_15" to="out_N" fromLane="0" toLane="2" via=":J4_23_0" dir="l" state="m"/>
    <connection from=":J4_23" to="out_N" fromLane="0" toLane="2" dir="l" state="m"/>

    <connection from=":J3_w0" to="in_W" fromLane="0" toLane="0" dir="s" state="M"/>
    <connection from="out_W" to=":J3_w0" fromLane="0" toLane="0" dir="s" state="M"/>
    <connection from=":J4_c0" to=":J4_w0" fromLane="0" toLane="0" dir="s" state="M"/>
    <connection from=":J4_c1" to=":J4_w1" fromLane="0" toLane="0" dir="s" state="M"/>
    <connection from=":J4_c2" to=":J4_w2" fromLane="0" toLane="0" dir="s" state="M"/>
    <connection from=":J4_c3" to=":J4_w3" fromLane="0" toLane="0" dir="s" state="M"/>
    <connection from=":J4_w0" to=":J4_c3" fromLane="0" toLane="0" tl="J4" linkIndex="19" dir="s" state="M"/>
    <connection from=":J4_w0" to="out_W" fromLane="0" toLane="0" dir="s" state="M"/>
    <connection from="in_N" to=":J4_w0" fromLane="0" toLane="0" dir="s" state="M"/>
    <connection from=":J4_w1" to=":J4_c0" fromLane="0" toLane="0" tl="J4" linkIndex="16" dir="s" state="M"/>
    <connection from=":J4_w1" to="out_N" fromLane="0" toLane="0" dir="s" state="M"/>
    <connection from="int_E" to=":J4_w1" fromLane="0" toLane="0" dir="s" state="M"/>
    <connection from=":J4_w2" to=":J4_c1" fromLane="0" toLane="0" tl="J4" linkIndex="17" dir="s" state="M"/>
    <connection from=":J4_w2" to="out_E" fromLane="0" toLane="0" dir="s" state="M"/>
    <connection from="in_S" to=":J4_w2" fromLane="0" toLane="0" dir="s" state="M"/>
    <connection from=":J4_w3" to=":J4_c2" fromLane="0" toLane="0" tl="J4" linkIndex="18" dir="s" state="M"/>
    <connection from=":J4_w3" to="out_S" fromLane="0" toLane="0" dir="s" state="M"/>
    <connection from="in_W" to=":J4_w3" fromLane="0" toLane="0" dir="s" state="M"/>
    <connection from=":J5_w0" to="int_E" fromLane="0" toLane="0" dir="s" state="M"/>
    <connection from="out_E" to=":J5_w0" fromLane="0" toLane="0" dir="s" state="M"/>
    <connection from=":J6_w0" to="in_N" fromLane="0" toLane="0" dir="s" state="M"/>
    <connection from="out_N" to=":J6_w0" fromLane="0" toLane="0" dir="s" state="M"/>
    <connection from=":J7_w0" to="in_S" fromLane="0" toLane="0" dir="s" state="M"/>
    <connection from="out_S" to=":J7_w0" fromLane="0" toLane="0" dir="s" state="M"/>
</net>
