<?xml version="1.0" encoding="UTF-8"?>
<additional>
    <poly id="ground" type="ground" color="223,226,221" fill="1" layer="-10" shape="-35.0,-35.0 356.4,-35.0 356.4,259.2 -35.0,259.2 -35.0,-35.0"/>
    <poly id="bldg_0" type="building" color="199,190,178" fill="1" layer="-5" shape="-29.7,-32.1 -15.2,-32.1 -15.2,-17.7 -29.7,-17.7 -29.7,-32.1"/>
    <poly id="park_1" type="park" color="168,200,148" fill="1" layer="-6" shape="-29.8,-5.7 -14.2,-5.7 -14.2,8.0 -29.8,8.0 -29.8,-5.7"/>
    <poly id="bldg_2" type="building" color="208,200,186" fill="1" layer="-5" shape="-30.1,15.2 -15.8,15.2 -15.8,31.0 -30.1,31.0 -30.1,15.2"/>
    <poly id="bldg_3" type="building" color="212,198,182" fill="1" layer="-5" shape="-31.5,40.0 -14.9,40.0 -14.9,56.2 -31.5,56.2 -31.5,40.0"/>
    <poly id="park_4" type="park" color="168,200,148" fill="1" layer="-6" shape="-32.1,64.2 -15.2,64.2 -15.2,79.0 -32.1,79.0 -32.1,64.2"/>
    <poly id="bldg_5" type="building" color="196,188,176" fill="1" layer="-5" shape="-30.8,89.5 -16.3,89.5 -16.3,103.2 -30.8,103.2 -30.8,89.5"/>
    <poly id="bldg_6" type="building" color="184,176,164" fill="1" layer="-5" shape="-28.8,112.3 -13.4,112.3 -13.4,128.7 -28.8,128.7 -28.8,112.3"/>
    <poly id="bldg_7" type="building" color="196,188,176" fill="1" layer="-5" shape="-29.6,138.6 -15.8,138.6 -15.8,153.0 -29.6,153.0 -29.6,138.6"/>
    <poly id="bldg_8" type="building" color="208,200,186" fill="1" layer="-5" shape="-29.0,162.9 -14.1,162.9 -14.1,178.0 -29.0,178.0 -29.0,162.9"/>
    <poly id="bldg_9" type="building" color="175,167,155" fill="1" layer="-5" shape="-30.8,183.4 -16.3,183.4 -16.3,200.2 -30.8,200.2 -30.8,183.4"/>
    <poly id="bldg_10" type="building" color="199,190,178" fill="1" layer="-5" shape="-29.7,209.6 -15.2,209.6 -15.2,224.7 -29.7,224.7 -29.7,209.6"/>
    <poly id="park_11" type="park" color="168,200,148" fill="1" layer="-6" shape="-29.6,231.8 -14.9,231.8 -14.9,248.0 -29.6,248.0 -29.6,231.8"/>
    <poly id="bldg_12" type="building" color="199,190,178" fill="1" layer="-5" shape="-4.7,-31.7 9.1,-31.7 9.1,-15.0 -4.7,-15.0 -4.7,-31.7"/>
    <poly id="bldg_13" type="building" color="184,176,164" fill="1" layer="-5" shape="-7.2,-6.7 7.7,-6.7 7.7,10.0 -7.2,10.0 -7.2,-6.7"/>
    <poly id="bldg_14" type="building" color="175,167,155" fill="1" layer="-5" shape="-8.2,17.9 7.3,17.9 7.3,34.0 -8.2,34.0 -8.2,17.9"/>
    <poly id="park_15" type="park" color="168,200,148" fill="1" layer="-6" shape="-7.9,40.2 9.1,40.2 9.1,55.5 -7.9,55.5 -7.9,40.2"/>
    <poly id="bldg_16" type="building" color="212,198,182" fill="1" layer="-5" shape="-4.6,63.7 9.5,63.7 9.5,79.6 -4.6,79.6 -4.6,63.7"/>
    <poly id="bldg_17" type="building" color="184,176,164" fill="1" layer="-5" shape="-5.6,135.1 10.5,135.1 10.5,151.0 -5.6,151.0 -5.6,135.1"/>
    <poly id="park_18" type="park" color="152,190,138" fill="1" layer="-6" shape="-5.2,161.3 9.4,161.3 9.4,175.4 -5.2,175.4 -5.2,161.3"/>
    <poly id="bldg_19" type="building" color="199,190,178" fill="1" layer="-5" shape="-4.8,187.1 10.6,187.1 10.6,201.0 -4.8,201.0 -4.8,187.1"/>
    <poly id="bldg_20" type="building" color="175,167,155" fill="1" layer="-5" shape="-6.4,208.7 8.5,208.7 8.5,222.9 -6.4,222.9 -6.4,208.7"/>
    <poly id="bldg_21" type="building" color="184,176,164" fill="1" layer="-5" shape="-5.0,234.4 10.3,234.4 10.3,248.4 -5.0,248.4 -5.0,234.4"/>
    <poly id="bldg_22" type="building" color="196,188,176" fill="1" layer="-5" shape="16.2,-31.0 31.7,-31.0 31.7,-17.1 16.2,-17.1 16.2,-31.0"/>
    <poly id="bldg_23" type="building" color="208,200,186" fill="1" layer="-5" shape="19.9,-6.8 33.9,-6.8 33.9,9.1 19.9,9.1 19.9,-6.8"/>
    <poly id="bldg_24" type="building" color="199,190,178" fill="1" layer="-5" shape="16.5,19.3 31.6,19.3 31.6,33.6 16.5,33.6 16.5,19.3"/>
    <poly id="bldg_25" type="building" color="175,167,155" fill="1" layer="-5" shape="18.3,41.9 33.2,41.9 33.2,57.8 18.3,57.8 18.3,41.9"/>
    <poly id="bldg_26" type="building" color="175,167,155" fill="1" layer="-5" shape="17.9,65.2 31.7,65.2 31.7,78.8 17.9,78.8 17.9,65.2"/>
    <poly id="bldg_27" type="building" color="208,200,186" fill="1" layer="-5" shape="19.7,139.2 33.5,139.2 33.5,153.6 19.7,153.6 19.7,139.2"/>
    <poly id="bldg_28" type="building" color="212,198,182" fill="1" layer="-5" shape="16.9,162.1 33.5,162.1 33.5,177.7 16.9,177.7 16.9,162.1"/>
    <poly id="bldg_29" type="building" color="212,198,182" fill="1" layer="-5" shape="19.3,184.2 33.2,184.2 33.2,199.3 19.3,199.3 19.3,184.2"/>
    <poly id="park_30" type="park" color="152,190,138" fill="1" layer="-6" shape="18.5,207.3 34.4,207.3 34.4,223.1 18.5,223.1 18.5,207.3"/>
    <poly id="bldg_31" type="building" color="208,200,186" fill="1" layer="-5" shape="19.1,231.7 33.3,231.7 33.3,247.1 19.1,247.1 19.1,231.7"/>
    <poly id="bldg_32" type="building" color="175,167,155" fill="1" layer="-5" shape="39.7,-31.6 56.5,-31.6 56.5,-16.4 39.7,-16.4 39.7,-31.6"/>
    <poly id="park_33" type="park" color="168,200,148" fill="1" layer="-6" shape="39.7,-5.2 55.1,-5.2 55.1,8.4 39.7,8.4 39.7,-5.2"/>
    <poly id="park_34" type="park" color="152,190,138" fill="1" layer="-6" shape="40.5,17.5 54.8,17.5 54.8,32.4 40.5,32.4 40.5,17.5"/>
    <poly id="bldg_35" type="building" color="199,190,178" fill="1" layer="-5" shape="38.6,40.4 55.4,40.4 55.4,56.7 38.6,56.7 38.6,40.4"/>
    <poly id="bldg_36" type="building" color="184,176,164" fill="1" layer="-5" shape="43.1,67.0 58.6,67.0 58.6,83.0 43.1,83.0 43.1,67.0"/>
    <poly id="bldg_37" type="building" color="196,188,176" fill="1" layer="-5" shape="40.6,134.8 55.9,134.8 55.9,151.6 40.6,151.6 40.6,134.8"/>
    <poly id="bldg_38" type="building" color="208,200,186" fill="1" layer="-5" shape="43.7,159.5 58.0,159.5 58.0,175.1 43.7,175.1 43.7,159.5"/>
    <poly id="park_39" type="park" color="168,200,148" fill="1" layer="-6" shape="40.8,187.0 56.4,187.0 56.4,202.6 40.8,202.6 40.8,187.0"/>
    <poly id="bldg_40" type="building" color="199,190,178" fill="1" layer="-5" shape="41.0,208.9 56.4,208.9 56.4,225.7 41.0,225.7 41.0,208.9"/>
    <poly id="bldg_41" type="building" color="196,188,176" fill="1" layer="-5" shape="41.2,232.2 55.3,232.2 55.3,248.0 41.2,248.0 41.2,232.2"/>
    <poly id="bldg_42" type="building" color="175,167,155" fill="1" layer="-5" shape="63.3,-29.5 78.8,-29.5 78.8,-15.5 63.3,-15.5 63.3,-29.5"/>
    <poly id="bldg_43" type="building" color="208,200,186" fill="1" layer="-5" shape="63.8,-5.6 80.4,-5.6 80.4,11.0 63.8,11.0 63.8,-5.6"/>
    <poly id="bldg_44" type="building" color="175,167,155" fill="1" layer="-5" shape="65.4,16.7 80.1,16.7 80.1,33.6 65.4,33.6 65.4,16.7"/>
    <poly id="bldg_45" type="building" color="208,200,186" fill="1" layer="-5" shape="63.7,42.3 78.3,42.3 78.3,58.2 63.7,58.2 63.7,42.3"/>
    <poly id="bldg_46" type="building" color="208,200,186" fill="1" layer="-5" shape="64.0,67.5 80.1,67.5 80.1,81.6 64.0,81.6 64.0,67.5"/>
    <poly id="bldg_47" type="building" color="184,176,164" fill="1" layer="-5" shape="64.7,139.7 81.2,139.7 81.2,153.6 64.7,153.6 64.7,139.7"/>
    <poly id="bldg_48" type="building" color="212,198,182" fill="1" layer="-5" shape="64.2,159.9 78.2,159.9 78.2,176.8 64.2,176.8 64.2,159.9"/>
    <poly id="bldg_49" type="building" color="208,200,186" fill="1" layer="-5" shape="66.4,185.8 80.0,185.8 80.0,199.6 66.4,199.6 66.4,185.8"/>
    <poly id="bldg_50" type="building" color="184,176,164" fill="1" layer="-5" shape="65.4,211.3 81.0,211.3 81.0,225.4 65.4,225.4 65.4,211.3"/>
    <poly id="bldg_51" type="building" color="199,190,178" fill="1" layer="-5" shape="64.0,235.9 80.9,235.9 80.9,249.6 64.0,249.6 64.0,235.9"/>
    <poly id="bldg_52" type="building" color="175,167,155" fill="1" layer="-5" shape="87.9,-32.9 104.1,-32.9 104.1,-16.3 87.9,-16.3 87.9,-32.9"/>
    <poly id="bldg_53" type="building" color="208,200,186" fill="1" layer="-5" shape="90.8,-4.4 105.2,-4.4 105.2,9.8 90.8,9.8 90.8,-4.4"/>
    <poly id="bldg_54" type="building" color="199,190,178" fill="1" layer="-5" shape="90.5,15.7 106.6,15.7 106.6,30.5 90.5,30.5 90.5,15.7"/>
    <poly id="park_55" type="park" color="168,200,148" fill="1" layer="-6" shape="91.2,42.1 105.7,42.1 105.7,58.4 91.2,58.4 91.2,42.1"/>
    <poly id="bldg_56" type="building" color="208,200,186" fill="1" layer="-5" shape="90.2,64.3 106.6,64.3 106.6,79.5 90.2,79.5 90.2,64.3"/>
    <poly id="bldg_57" type="building" color="175,167,155" fill="1" layer="-5" shape="87.9,138.4 102.7,138.4 102.7,153.8 87.9,153.8 87.9,138.4"/>
    <poly id="bldg_58" type="building" color="184,176,164" fill="1" layer="-5" shape="88.0,159.9 104.6,159.9 104.6,174.4 88.0,174.4 88.0,159.9"/>
    <poly id="bldg_59" type="building" color="175,167,155" fill="1" layer="-5" shape="87.8,185.2 102.5,185.2 102.5,201.5 87.8,201.5 87.8,185.2"/>
    <poly id="bldg_60" type="building" color="175,167,155" fill="1" layer="-5" shape="88.3,211.7 102.6,211.7 102.6,225.5 88.3,225.5 88.3,211.7"/>
    <poly id="bldg_61" type="building" color="184,176,164" fill="1" layer="-5" shape="90.7,233.1 106.7,233.1 106.7,249.2 90.7,249.2 90.7,233.1"/>
    <poly id="bldg_62" type="building" color="196,188,176" fill="1" layer="-5" shape="112.4,-29.1 129.1,-29.1 129.1,-13.3 112.4,-13.3 112.4,-29.1"/>
    <poly id="bldg_63" type="building" color="184,176,164" fill="1" layer="-5" shape="114.6,-7.3 129.2,-7.3 129.2,7.7 114.6,7.7 114.6,-7.3"/>
    <poly id="bldg_64" type="building" color="208,200,186" fill="1" layer="-5" shape="113.3,16.3 129.1,16.3 129.1,31.2 113.3,31.2 113.3,16.3"/>
    <poly id="bldg_65" type="building" color="212,198,182" fill="1" layer="-5" shape="113.7,41.4 129.2,41.4 129.2,55.0 113.7,55.0 113.7,41.4"/>
    <poly id="bldg_66" type="building" color="175,167,155" fill="1" layer="-5" shape="114.8,65.9 129.5,65.9 129.5,81.0 114.8,81.0 114.8,65.9"/>
    <poly id="bldg_67" type="building" color="208,200,186" fill="1" layer="-5" shape="111.5,137.7 127.2,137.7 127.2,152.4 111.5,152.4 111.5,137.7"/>
    <poly id="bldg_68" type="building" color="212,198,182" fill="1" layer="-5" shape="114.6,161.1 128.8,161.1 128.8,174.7 114.6,174.7 114.6,161.1"/>
    <poly id="bldg_69" type="building" color="199,190,178" fill="1" layer="-5" shape="113.9,185.8 129.0,185.8 129.0,202.4 113.9,202.4 113.9,185.8"/>
    <poly id="park_70" type="park" color="168,200,148" fill="1" layer="-6" shape="114.6,209.1 129.0,209.1 129.0,224.9 114.6,224.9 114.6,209.1"/>
    <poly id="bldg_71" type="building" color="175,167,155" fill="1" layer="-5" shape="113.9,231.9 130.3,231.9 130.3,247.9 113.9,247.9 113.9,231.9"/>
    <poly id="bldg_72" type="building" color="175,167,155" fill="1" layer="-5" shape="136.4,-29.8 151.6,-29.8 151.6,-13.4 136.4,-13.4 136.4,-29.8"/>
    <poly id="bldg_73" type="building" color="199,190,178" fill="1" layer="-5" shape="136.4,233.2 151.8,233.2 151.8,247.3 136.4,247.3 136.4,233.2"/>
    <poly id="bldg_74" type="building" color="196,188,176" fill="1" layer="-5" shape="160.1,-31.5 175.1,-31.5 175.1,-16.8 160.1,-16.8 160.1,-31.5"/>
    <poly id="bldg_75" type="building" color="212,198,182" fill="1" layer="-5" shape="162.6,17.1 178.6,17.1 178.6,33.6 162.6,33.6 162.6,17.1"/>
    <poly id="bldg_76" type="building" color="212,198,182" fill="1" layer="-5" shape="162.6,139.3 177.8,139.3 177.8,153.9 162.6,153.9 162.6,139.3"/>
    <poly id="park_77" type="park" color="152,190,138" fill="1" layer="-6" shape="162.0,231.3 177.0,231.3 177.0,246.9 162.0,246.9 162.0,231.3"/>
    <poly id="bldg_78" type="building" color="184,176,164" fill="1" layer="-5" shape="184.7,-30.6 198.4,-30.6 198.4,-15.7 184.7,-15.7 184.7,-30.6"/>
    <poly id="bldg_79" type="building" color="196,188,176" fill="1" layer="-5" shape="185.1,-5.9 199.6,-5.9 199.6,10.9 185.1,10.9 185.1,-5.9"/>
    <poly id="bldg_80" type="building" color="196,188,176" fill="1" layer="-5" shape="186.0,17.6 199.8,17.6 199.8,34.4 186.0,34.4 186.0,17.6"/>
    <poly id="bldg_81" type="building" color="196,188,176" fill="1" layer="-5" shape="186.0,41.2 202.2,41.2 202.2,58.0 186.0,58.0 186.0,41.2"/>
    <poly id="bldg_82" type="building" color="212,198,182" fill="1" layer="-5" shape="185.9,65.0 201.1,65.0 201.1,78.9 185.9,78.9 185.9,65.0"/>
    <poly id="park_83" type="park" color="168,200,148" fill="1" layer="-6" shape="185.8,135.0 202.2,135.0 202.2,151.9 185.8,151.9 185.8,135.0"/>
    <poly id="bldg_84" type="building" color="208,200,186" fill="1" layer="-5" shape="186.4,161.9 203.1,161.9 203.1,176.7 186.4,176.7 186.4,161.9"/>
    <poly id="bldg_85" type="building" color="199,190,178" fill="1" layer="-5" shape="183.4,186.8 199.2,186.8 199.2,200.7 183.4,200.7 183.4,186.8"/>
    <poly id="bldg_86" type="building" color="212,198,182" fill="1" layer="-5" shape="184.9,207.4 201.9,207.4 201.9,223.6 184.9,223.6 184.9,207.4"/>
    <poly id="bldg_87" type="building" color="212,198,182" fill="1" layer="-5" shape="185.7,232.5 201.5,232.5 201.5,246.1 185.7,246.1 185.7,232.5"/>
    <poly id="bldg_88" type="building" color="212,198,182" fill="1" layer="-5" shape="207.5,-29.4 223.3,-29.4 223.3,-12.9 207.5,-12.9 207.5,-29.4"/>
    <poly id="bldg_89" type="building" color="212,198,182" fill="1" layer="-5" shape="207.8,-6.8 223.6,-6.8 223.6,8.9 207.8,8.9 207.8,-6.8"/>
    <poly id="bldg_90" type="building" color="196,188,176" fill="1" layer="-5" shape="209.1,19.0 224.7,19.0 224.7,33.7 209.1,33.7 209.1,19.0"/>
    <poly id="bldg_91" type="building" color="184,176,164" fill="1" layer="-5" shape="208.0,41.0 224.2,41.0 224.2,56.6 208.0,56.6 208.0,41.0"/>
    <poly id="bldg_92" type="building" color="184,176,164" fill="1" layer="-5" shape="208.0,67.2 222.2,67.2 222.2,81.6 208.0,81.6 208.0,67.2"/>
    <poly id="bldg_93" type="building" color="208,200,186" fill="1" layer="-5" shape="209.9,136.3 224.3,136.3 224.3,151.3 209.9,151.3 209.9,136.3"/>
    <poly id="park_94" type="park" color="168,200,148" fill="1" layer="-6" shape="210.1,161.4 225.4,161.4 225.4,177.7 210.1,177.7 210.1,161.4"/>
    <poly id="bldg_95" type="building" color="184,176,164" fill="1" layer="-5" shape="208.7,184.5 224.5,184.5 224.5,199.4 208.7,199.4 208.7,184.5"/>
    <poly id="bldg_96" type="building" color="184,176,164" fill="1" layer="-5" shape="209.3,210.0 224.1,210.0 224.1,226.0 209.3,226.0 209.3,210.0"/>
    <poly id="bldg_97" type="building" color="199,190,178" fill="1" layer="-5" shape="208.6,233.8 223.3,233.8 223.3,249.9 208.6,249.9 208.6,233.8"/>
    <poly id="bldg_98" type="building" color="175,167,155" fill="1" layer="-5" shape="232.1,-32.2 247.4,-32.2 247.4,-16.1 232.1,-16.1 232.1,-32.2"/>
    <poly id="bldg_99" type="building" color="184,176,164" fill="1" layer="-5" shape="233.2,-4.4 249.6,-4.4 249.6,10.2 233.2,10.2 233.2,-4.4"/>
    <poly id="bldg_100" type="building" color="199,190,178" fill="1" layer="-5" shape="231.8,16.7 246.3,16.7 246.3,33.6 231.8,33.6 231.8,16.7"/>
    <poly id="park_101" type="park" color="152,190,138" fill="1" layer="-6" shape="234.7,42.6 250.9,42.6 250.9,56.5 234.7,56.5 234.7,42.6"/>
    <poly id="bldg_102" type="building" color="212,198,182" fill="1" layer="-5" shape="233.8,65.9 248.0,65.9 248.0,79.6 233.8,79.6 233.8,65.9"/>
    <poly id="park_103" type="park" color="168,200,148" fill="1" layer="-6" shape="233.6,135.2 249.9,135.2 249.9,152.0 233.6,152.0 233.6,135.2"/>
    <poly id="bldg_104" type="building" color="175,167,155" fill="1" layer="-5" shape="231.6,161.9 247.3,161.9 247.3,178.2 231.6,178.2 231.6,161.9"/>
    <poly id="bldg_105" type="building" color="175,167,155" fill="1" layer="-5" shape="233.2,186.8 247.8,186.8 247.8,202.4 233.2,202.4 233.2,186.8"/>
    <poly id="bldg_106" type="building" color="208,200,186" fill="1" layer="-5" shape="233.4,209.0 249.5,209.0 249.5,225.8 233.4,225.8 233.4,209.0"/>
    <poly id="bldg_107" type="building" color="212,198,182" fill="1" layer="-5" shape="232.9,231.6 247.3,231.6 247.3,247.1 232.9,247.1 232.9,231.6"/>
    <poly id="bldg_108" type="building" color="199,190,178" fill="1" layer="-5" shape="257.5,-29.8 272.1,-29.8 272.1,-15.4 257.5,-15.4 257.5,-29.8"/>
    <poly id="bldg_109" type="building" color="175,167,155" fill="1" layer="-5" shape="259.2,-8.0 273.6,-8.0 273.6,6.5 259.2,6.5 259.2,-8.0"/>
    <poly id="bldg_110" type="building" color="184,176,164" fill="1" layer="-5" shape="258.1,19.0 273.2,19.0 273.2,34.5 258.1,34.5 258.1,19.0"/>
    <poly id="bldg_111" type="building" color="175,167,155" fill="1" layer="-5" shape="259.2,40.0 273.4,40.0 273.4,54.6 259.2,54.6 259.2,40.0"/>
    <poly id="bldg_112" type="building" color="184,176,164" fill="1" layer="-5" shape="259.1,65.4 274.3,65.4 274.3,80.1 259.1,80.1 259.1,65.4"/>
    <poly id="bldg_113" type="building" color="175,167,155" fill="1" layer="-5" shape="257.5,137.3 272.0,137.3 272.0,151.2 257.5,151.2 257.5,137.3"/>
    <poly id="bldg_114" type="building" color="208,200,186" fill="1" layer="-5" shape="257.2,158.9 273.4,158.9 273.4,175.3 257.2,175.3 257.2,158.9"/>
    <poly id="bldg_115" type="building" color="199,190,178" fill="1" layer="-5" shape="256.5,186.5 273.2,186.5 273.2,200.7 256.5,200.7 256.5,186.5"/>
    <poly id="bldg_116" type="building" color="196,188,176" fill="1" layer="-5" shape="258.7,211.4 273.9,211.4 273.9,226.4 258.7,226.4 258.7,211.4"/>
    <poly id="bldg_117" type="building" color="175,167,155" fill="1" layer="-5" shape="258.5,233.0 274.4,233.0 274.4,247.6 258.5,247.6 258.5,233.0"/>
    <poly id="bldg_118" type="building" color="175,167,155" fill="1" layer="-5" shape="279.9,-31.6 294.4,-31.6 294.4,-17.7 279.9,-17.7 279.9,-31.6"/>
    <poly id="park_119" type="park" color="152,190,138" fill="1" layer="-6" shape="282.0,-8.6 298.6,-8.6 298.6,6.6 282.0,6.6 282.0,-8.6"/>
    <poly id="bldg_120" type="building" color="208,200,186" fill="1" layer="-5" shape="281.9,18.1 297.0,18.1 297.0,31.9 281.9,31.9 281.9,18.1"/>
    <poly id="bldg_121" type="building" color="175,167,155" fill="1" layer="-5" shape="282.7,41.7 298.7,41.7 298.7,55.8 282.7,55.8 282.7,41.7"/>
    <poly id="bldg_122" type="building" color="208,200,186" fill="1" layer="-5" shape="282.9,67.0 297.5,67.0 297.5,80.7 282.9,80.7 282.9,67.0"/>
    <poly id="bldg_123" type="building" color="212,198,182" fill="1" layer="-5" shape="282.3,137.3 298.3,137.3 298.3,152.7 282.3,152.7 282.3,137.3"/>
    <poly id="bldg_124" type="building" color="175,167,155" fill="1" layer="-5" shape="283.2,160.5 298.7,160.5 298.7,175.4 283.2,175.4 283.2,160.5"/>
    <poly id="bldg_125" type="building" color="184,176,164" fill="1" layer="-5" shape="283.1,183.4 296.9,183.4 296.9,199.7 283.1,199.7 283.1,183.4"/>
    <poly id="bldg_126" type="building" color="175,167,155" fill="1" layer="-5" shape="282.5,209.8 298.9,209.8 298.9,224.3 282.5,224.3 282.5,209.8"/>
    <poly id="bldg_127" type="building" color="184,176,164" fill="1" layer="-5" shape="281.0,234.1 297.6,234.1 297.6,249.2 281.0,249.2 281.0,234.1"/>
    <poly id="bldg_128" type="building" color="199,190,178" fill="1" layer="-5" shape="305.6,-30.2 320.8,-30.2 320.8,-15.5 305.6,-15.5 305.6,-30.2"/>
    <poly id="bldg_129" type="building" color="212,198,182" fill="1" layer="-5" shape="303.7,-7.0 320.2,-7.0 320.2,8.0 303.7,8.0 303.7,-7.0"/>
    <poly id="bldg_130" type="building" color="208,200,186" fill="1" layer="-5" shape="306.4,18.3 321.3,18.3 321.3,34.2 306.4,34.2 306.4,18.3"/>
    <poly id="bldg_131" type="building" color="212,198,182" fill="1" layer="-5" shape="305.3,39.3 320.6,39.3 320.6,55.0 305.3,55.0 305.3,39.3"/>
    <poly id="bldg_132" type="building" color="208,200,186" fill="1" layer="-5" shape="304.6,67.6 318.2,67.6 318.2,81.7 304.6,81.7 304.6,67.6"/>
    <poly id="bldg_133" type="building" color="184,176,164" fill="1" layer="-5" shape="305.2,135.4 319.9,135.4 319.9,151.3 305.2,151.3 305.2,135.4"/>
    <poly id="bldg_134" type="building" color="208,200,186" fill="1" layer="-5" shape="305.9,162.8 321.1,162.8 321.1,178.3 305.9,178.3 305.9,162.8"/>
    <poly id="bldg_135" type="building" color="196,188,176" fill="1" layer="-5" shape="305.0,186.6 322.0,186.6 322.0,202.8 305.0,202.8 305.0,186.6"/>
    <poly id="bldg_136" type="building" color="196,188,176" fill="1" layer="-5" shape="307.1,210.7 321.0,210.7 321.0,224.9 307.1,224.9 307.1,210.7"/>
    <poly id="bldg_137" type="building" color="175,167,155" fill="1" layer="-5" shape="303.9,234.7 318.5,234.7 318.5,249.6 303.9,249.6 303.9,234.7"/>
    <poly id="bldg_138" type="building" color="212,198,182" fill="1" layer="-5" shape="329.5,-29.4 343.8,-29.4 343.8,-15.2 329.5,-15.2 329.5,-29.4"/>
    <poly id="bldg_139" type="building" color="184,176,164" fill="1" layer="-5" shape="329.1,-7.1 345.8,-7.1 345.8,7.0 329.1,7.0 329.1,-7.1"/>
    <poly id="bldg_140" type="building" color="175,167,155" fill="1" layer="-5" shape="328.5,18.1 345.2,18.1 345.2,33.3 328.5,33.3 328.5,18.1"/>
    <poly id="bldg_141" type="building" color="212,198,182" fill="1" layer="-5" shape="328.2,41.0 343.0,41.0 343.0,56.6 328.2,56.6 328.2,41.0"/>
    <poly id="bldg_142" type="building" color="196,188,176" fill="1" layer="-5" shape="330.4,64.3 345.1,64.3 345.1,81.3 330.4,81.3 330.4,64.3"/>
    <poly id="bldg_143" type="building" color="184,176,164" fill="1" layer="-5" shape="330.0,114.5 344.6,114.5 344.6,131.4 330.0,131.4 330.0,114.5"/>
    <poly id="bldg_144" type="building" color="199,190,178" fill="1" layer="-5" shape="326.9,138.0 343.2,138.0 343.2,154.9 326.9,154.9 326.9,138.0"/>
    <poly id="bldg_145" type="building" color="184,176,164" fill="1" layer="-5" shape="329.7,162.5 344.3,162.5 344.3,178.8 329.7,178.8 329.7,162.5"/>
    <poly id="bldg_146" type="building" color="199,190,178" fill="1" layer="-5" shape="328.6,183.7 343.1,183.7 343.1,199.8 328.6,199.8 328.6,183.7"/>
    <poly id="bldg_147" type="building" color="212,198,182" fill="1" layer="-5" shape="330.0,209.6 346.7,209.6 346.7,225.4 330.0,225.4 330.0,209.6"/>
    <poly id="bldg_148" type="building" color="212,198,182" fill="1" layer="-5" shape="328.1,232.1 342.2,232.1 342.2,248.8 328.1,248.8 328.1,232.1"/>
</additional>
