<?xml version="1.0" encoding="UTF-8"?>

<!-- generated on 2026-06-19T15:44:51.340520+00:00 by Eclipse SUMO netconvert 1.26.0
<netconvertConfiguration xmlns:xsi="http://www.w3.org/2001/XMLSchema-instance" xsi:noNamespaceSchemaLocation="http://sumo.dlr.de/xsd/netconvertConfiguration.xsd">

    <input>
        <node-files value="C:\Users\tahae\AppData\Local\Temp\rebuild_8pnldetm\p.nod.xml"/>
        <edge-files value="C:\Users\tahae\AppData\Local\Temp\rebuild_8pnldetm\p.edg.xml"/>
        <tllogic-files value="C:\Users\tahae\AppData\Local\Temp\rebuild_8pnldetm\custom.tll.xml"/>
    </input>

    <output>
        <output-file value="C:/Users/tahae/AppData/Local/Temp/tj_build/tj_2lane.net.xml"/>
    </output>

    <building_defaults>
        <default.sidewalk-width value="2.0"/>
    </building_defaults>

    <junctions>
        <no-turnarounds value="true"/>
    </junctions>

    <pedestrian>
        <sidewalks.guess value="true"/>
        <crossings.guess value="true"/>
        <walkingareas value="true"/>
    </pedestrian>

</netconvertConfiguration>
-->

<net version="1.20" junctionCornerDetail="5" walkingareas="true" limitTurnSpeed="5.50" xmlns:xsi="http://www.w3.org/2001/XMLSchema-instance" xsi:noNamespaceSchemaLocation="http://sumo.dlr.de/xsd/net_file.xsd">

    <location netOffset="76.59,83.81" convBoundary="0.00,0.00,356.21,195.74" origBoundary="-10000000000.00,-10000000000.00,10000000000.00,10000000000.00" projParameter="!"/>

    <edge id=":TL_main_0" function="internal">
        <lane id=":TL_main_0_0" index="0" disallow="pedestrian" speed="6.53" length="4.78" shape="154.08,78.73 156.54,78.39 158.30,77.34 158.43,77.12"/>
    </edge>
    <edge id=":TL_main_1" function="internal">
        <lane id=":TL_main_1_0" index="0" disallow="pedestrian" speed="13.89" length="12.37" shape="154.08,78.73 166.46,78.77"/>
        <lane id=":TL_main_1_1" index="1" disallow="pedestrian" speed="13.89" length="12.37" shape="154.07,81.93 166.43,81.97"/>
    </edge>
    <edge id=":TL_main_6" function="internal">
        <lane id=":TL_main_6_0" index="0" disallow="pedestrian" speed="6.53" length="4.28" shape="158.43,77.12 159.37,75.59 159.74,73.14"/>
    </edge>
    <edge id=":TL_main_3" function="internal">
        <lane id=":TL_main_3_0" index="0" disallow="pedestrian" speed="13.89" length="12.37" shape="159.64,85.51 159.74,73.14"/>
        <lane id=":TL_main_3_1" index="1" disallow="pedestrian" speed="13.89" length="12.37" shape="162.84,85.52 162.94,73.17"/>
    </edge>
    <edge id=":TL_main_5" function="internal">
        <lane id=":TL_main_5_0" index="0" disallow="pedestrian" speed="5.34" length="5.77" shape="162.84,85.52 163.06,83.95 163.74,82.84 164.86,82.18 166.43,81.97"/>
    </edge>
    <edge id=":TL_main_c0" function="crossing" crossingEdges="out_S">
        <lane id=":TL_main_c0_0" index="0" allow="pedestrian" speed="2.78" length="6.40" width="4.00" shape="158.12,75.12 164.52,75.18" outlineShape="158.14,73.12 164.54,73.18 164.58,74.40 164.74,75.39 165.01,76.16 165.38,76.72 165.88,77.06 166.48,77.17 164.50,77.18 158.10,77.12 156.00,76.80 156.32,76.69 157.11,76.13 157.67,75.35 158.02,74.35"/>
    </edge>
    <edge id=":TL_main_c1" function="crossing" crossingEdges="edge_E">
        <lane id=":TL_main_c1_0" index="0" allow="pedestrian" speed="2.78" length="6.40" width="4.00" shape="156.07,83.54 156.08,77.14" outlineShape="154.07,83.53 154.08,77.13 155.31,77.02 156.32,76.69 157.11,76.13 157.67,75.35 157.78,75.03 158.08,77.14 158.07,83.54 158.04,85.51 157.93,84.91 157.60,84.41 157.05,84.03 156.28,83.76 155.28,83.59"/>
    </edge>
    <edge id=":TL_main_w0" function="walkingarea">
        <lane id=":TL_main_w0_0" index="0" allow="pedestrian" speed="2.78" length="2.20" width="4.00" shape="166.48,77.17 166.50,75.17 164.54,73.18 164.58,74.40 164.74,75.39 165.01,76.16 165.38,76.72 165.88,77.06"/>
    </edge>
    <edge id=":TL_main_w1" function="walkingarea">
        <lane id=":TL_main_w1_0" index="0" allow="pedestrian" speed="2.78" length="3.33" width="4.00" shape="158.14,73.12 156.14,73.10 154.09,75.13 154.08,77.13 155.31,77.02 156.32,76.69 157.11,76.13 157.67,75.35 158.02,74.35"/>
    </edge>
    <edge id=":TL_main_w2" function="walkingarea">
        <lane id=":TL_main_w2_0" index="0" allow="pedestrian" speed="2.78" length="2.19" width="4.00" shape="154.07,83.53 156.04,85.50 158.04,85.51 157.93,84.91 157.60,84.41 157.05,84.03 156.28,83.76 155.28,83.59"/>
    </edge>

    <edge id="edge_E" from="J10" to="TL_main" priority="-1">
        <lane id="edge_E_0" index="0" allow="pedestrian" speed="13.89" length="154.07" width="2.00" shape="0.01,75.88 154.08,76.13"/>
        <lane id="edge_E_1" index="1" disallow="pedestrian" speed="13.89" length="154.07" shape="0.01,78.48 154.08,78.73"/>
        <lane id="edge_E_2" index="2" disallow="pedestrian" speed="13.89" length="154.07" shape="0.00,81.68 154.07,81.93"/>
    </edge>
    <edge id="edge_N" from="J7" to="TL_main" priority="-1">
        <lane id="edge_N_0" index="0" allow="pedestrian" speed="13.89" length="110.22" width="2.00" shape="156.78,195.72 157.04,85.51"/>
        <lane id="edge_N_1" index="1" disallow="pedestrian" speed="13.89" length="110.22" shape="159.38,195.73 159.64,85.51"/>
        <lane id="edge_N_2" index="2" disallow="pedestrian" speed="13.89" length="110.22" shape="162.58,195.74 162.84,85.52"/>
    </edge>
    <edge id="out_E" from="TL_main" to="J11" priority="-1">
        <lane id="out_E_0" index="0" allow="pedestrian" speed="13.89" length="189.81" width="2.00" shape="166.49,76.17 356.29,78.27"/>
        <lane id="out_E_1" index="1" disallow="pedestrian" speed="13.89" length="189.81" shape="166.46,78.77 356.26,80.87"/>
        <lane id="out_E_2" index="2" disallow="pedestrian" speed="13.89" length="189.81" shape="166.43,81.97 356.23,84.07"/>
    </edge>
    <edge id="out_S" from="TL_main" to="J9" priority="-1">
        <lane id="out_S_0" index="0" allow="pedestrian" speed="13.89" length="73.19" width="2.00" shape="157.14,73.11 157.84,-0.07"/>
        <lane id="out_S_1" index="1" disallow="pedestrian" speed="13.89" length="73.19" shape="159.74,73.14 160.44,-0.05"/>
        <lane id="out_S_2" index="2" disallow="pedestrian" speed="13.89" length="73.19" shape="162.94,73.17 163.64,-0.02"/>
    </edge>

    <tlLogic id="TL_main" type="static" programID="0" offset="0">
        <phase duration="42" state="GGGrrrrr"/>
        <phase duration="3"  state="yyyrrrrr"/>
        <phase duration="42" state="rrrGGgrr"/>
        <phase duration="3"  state="rrryyyrr"/>
    </tlLogic>

    <junction id="J10" type="dead_end" x="0.00" y="83.28" incLanes="" intLanes="" shape="-0.00,83.28 0.01,74.88"/>
    <junction id="J11" type="dead_end" x="356.21" y="85.67" incLanes="out_E_0 out_E_1 out_E_2" intLanes="" shape="356.30,77.27 356.21,85.67"/>
    <junction id="J7" type="dead_end" x="164.18" y="195.74" incLanes="" intLanes="" shape="164.18,195.74 155.78,195.72"/>
    <junction id="J9" type="dead_end" x="165.24" y="0.00" incLanes="out_S_0 out_S_1 out_S_2" intLanes="" shape="156.84,-0.08 165.24,0.00"/>
    <junction id="TL_main" type="traffic_light" x="164.44" y="83.55" incLanes="edge_E_0 edge_E_1 edge_E_2 edge_N_0 edge_N_1 edge_N_2 :TL_main_w1_0 :TL_main_w2_0" intLanes=":TL_main_6_0 :TL_main_1_0 :TL_main_1_1 :TL_main_3_0 :TL_main_3_1 :TL_main_5_0 :TL_main_c0_0 :TL_main_c1_0" shape="166.41,83.57 166.50,75.17 165.40,74.94 165.02,74.66 164.75,74.28 164.59,73.78 164.54,73.18 156.14,73.10 155.90,74.23 155.62,74.63 155.22,74.91 154.71,75.08 154.09,75.13 154.07,83.53 155.16,83.75 155.55,84.03 155.82,84.41 155.98,84.90 156.04,85.50 164.44,85.52 164.66,84.43 164.93,84.05 165.31,83.78 165.81,83.62">
        <request index="0" response="11000000" foes="11011000" cont="1"/>
        <request index="1" response="10000000" foes="10111000" cont="0"/>
        <request index="2" response="10000000" foes="10111000" cont="0"/>
        <request index="3" response="01000111" foes="01000111" cont="0"/>
        <request index="4" response="01000111" foes="01000111" cont="0"/>
        <request index="5" response="00000110" foes="00000110" cont="0"/>
        <request index="6" response="00000000" foes="00011001" cont="0"/>
        <request index="7" response="00000000" foes="00000111" cont="0"/>
    </junction>

    <junction id=":TL_main_6_0" type="internal" x="158.43" y="77.12" incLanes=":TL_main_0_0" intLanes=":TL_main_3_0 :TL_main_3_1 :TL_main_c0_0 :TL_main_c1_0"/>

    <connection from="edge_E" to="out_S" fromLane="1" toLane="1" via=":TL_main_0_0" tl="TL_main" linkIndex="0" dir="r" state="o"/>
    <connection from="edge_E" to="out_E" fromLane="1" toLane="1" via=":TL_main_1_0" tl="TL_main" linkIndex="1" dir="s" state="o"/>
    <connection from="edge_E" to="out_E" fromLane="2" toLane="2" via=":TL_main_1_1" tl="TL_main" linkIndex="2" dir="s" state="o"/>
    <connection from="edge_N" to="out_S" fromLane="1" toLane="1" via=":TL_main_3_0" tl="TL_main" linkIndex="3" dir="s" state="o"/>
    <connection from="edge_N" to="out_S" fromLane="2" toLane="2" via=":TL_main_3_1" tl="TL_main" linkIndex="4" dir="s" state="o"/>
    <connection from="edge_N" to="out_E" fromLane="2" toLane="2" via=":TL_main_5_0" tl="TL_main" linkIndex="5" dir="l" state="o"/>

    <connection from=":TL_main_0" to="out_S" fromLane="0" toLane="1" via=":TL_main_6_0" dir="r" state="m"/>
    <connection from=":TL_main_6" to="out_S" fromLane="0" toLane="1" dir="r" state="m"/>
    <connection from=":TL_main_1" to="out_E" fromLane="0" toLane="1" dir="s" state="M"/>
    <connection from=":TL_main_1" to="out_E" fromLane="1" toLane="2" dir="s" state="M"/>
    <connection from=":TL_main_3" to="out_S" fromLane="0" toLane="1" dir="s" state="M"/>
    <connection from=":TL_main_3" to="out_S" fromLane="1" toLane="2" dir="s" state="M"/>
    <connection from=":TL_main_5" to="out_E" fromLane="0" toLane="2" dir="l" state="M"/>

    <connection from=":TL_main_c0" to=":TL_main_w0" fromLane="0" toLane="0" dir="s" state="M"/>
    <connection from=":TL_main_c1" to=":TL_main_w1" fromLane="0" toLane="0" dir="s" state="M"/>
    <connection from=":TL_main_w0" to="out_E" fromLane="0" toLane="0" dir="s" state="M"/>
    <connection from=":TL_main_w1" to=":TL_main_c0" fromLane="0" toLane="0" tl="TL_main" linkIndex="6" dir="s" state="M"/>
    <connection from=":TL_main_w1" to="out_S" fromLane="0" toLane="0" dir="s" state="M"/>
    <connection from="edge_E" to=":TL_main_w1" fromLane="0" toLane="0" dir="s" state="M"/>
    <connection from=":TL_main_w2" to=":TL_main_c1" fromLane="0" toLane="0" tl="TL_main" linkIndex="7" dir="s" state="M"/>
    <connection from="edge_N" to=":TL_main_w2" fromLane="0" toLane="0" dir="s" state="M"/>
</net>
