<?xml version="1.0" encoding="UTF-8"?>

<!-- generated on 2026-06-19T15:47:21.432286+00:00 by Eclipse SUMO netconvert 1.26.0
<netconvertConfiguration xmlns:xsi="http://www.w3.org/2001/XMLSchema-instance" xsi:noNamespaceSchemaLocation="http://sumo.dlr.de/xsd/netconvertConfiguration.xsd">

    <input>
        <node-files value="C:\Users\tahae\AppData\Local\Temp\rebuild_3hgh1jrr\p.nod.xml"/>
        <edge-files value="C:\Users\tahae\AppData\Local\Temp\rebuild_3hgh1jrr\p.edg.xml"/>
        <tllogic-files value="C:\Users\tahae\AppData\Local\Temp\rebuild_3hgh1jrr\custom.tll.xml"/>
    </input>

    <output>
        <output-file value="C:/Users/tahae/AppData/Local/Temp/blvd_2lane.net.xml"/>
    </output>

    <building_defaults>
        <default.sidewalk-width value="2.0"/>
    </building_defaults>

    <junctions>
        <no-turnarounds value="true"/>
    </junctions>

    <pedestrian>
        <sidewalks.guess value="true"/>
        <crossings.guess value="true"/>
        <walkingareas value="true"/>
    </pedestrian>

</netconvertConfiguration>
-->

<net version="1.20" junctionCornerDetail="5" walkingareas="true" limitTurnSpeed="5.50" xmlns:xsi="http://www.w3.org/2001/XMLSchema-instance" xsi:noNamespaceSchemaLocation="http://sumo.dlr.de/xsd/net_file.xsd">

    <location netOffset="0.00,100.00" convBoundary="0.00,0.00,900.00,200.00" origBoundary="0.00,-100.00,900.00,100.00" projParameter="!"/>

    <edge id=":B0_0" function="internal">
        <lane id=":B0_0_0" index="0" disallow="pedestrian" speed="13.89" length="12.40" shape="295.20,102.00 295.20,89.60"/>
        <lane id=":B0_0_1" index="1" disallow="pedestrian" speed="13.89" length="12.40" shape="298.40,102.00 298.40,89.60"/>
    </edge>
    <edge id=":B0_2" function="internal">
        <lane id=":B0_2_0" index="0" disallow="pedestrian" speed="7.77" length="1.63" shape="298.40,102.00 299.10,100.53"/>
    </edge>
    <edge id=":B0_10" function="internal">
        <lane id=":B0_10_0" index="0" disallow="pedestrian" speed="7.77" length="11.70" shape="299.10,100.53 299.15,100.43 301.40,99.30 305.15,98.62 310.40,98.40"/>
    </edge>
    <edge id=":B0_3" function="internal">
        <lane id=":B0_3_0" index="0" disallow="pedestrian" speed="6.51" length="4.75" shape="304.80,89.60 305.15,92.05 306.20,93.80 306.40,93.92"/>
    </edge>
    <edge id=":B0_4" function="internal">
        <lane id=":B0_4_0" index="0" disallow="pedestrian" speed="13.89" length="12.40" shape="304.80,89.60 304.80,102.00"/>
        <lane id=":B0_4_1" index="1" disallow="pedestrian" speed="13.89" length="12.40" shape="301.60,89.60 301.60,102.00"/>
    </edge>
    <edge id=":B0_11" function="internal">
        <lane id=":B0_11_0" index="0" disallow="pedestrian" speed="6.51" length="4.28" shape="306.40,93.92 307.95,94.85 310.40,95.20"/>
    </edge>
    <edge id=":B0_6" function="internal">
        <lane id=":B0_6_0" index="0" disallow="pedestrian" speed="6.51" length="4.75" shape="289.60,95.20 292.05,94.85 293.80,93.80 293.92,93.60"/>
    </edge>
    <edge id=":B0_7" function="internal">
        <lane id=":B0_7_0" index="0" disallow="pedestrian" speed="13.89" length="20.80" shape="289.60,95.20 310.40,95.20"/>
        <lane id=":B0_7_1" index="1" disallow="pedestrian" speed="13.89" length="20.80" shape="289.60,98.40 310.40,98.40"/>
    </edge>
    <edge id=":B0_9" function="internal">
        <lane id=":B0_9_0" index="0" disallow="pedestrian" speed="7.77" length="13.33" shape="289.60,98.40 294.85,98.62 298.60,99.30 300.85,100.43 301.60,102.00"/>
    </edge>
    <edge id=":B0_12" function="internal">
        <lane id=":B0_12_0" index="0" disallow="pedestrian" speed="6.51" length="4.28" shape="293.92,93.60 294.85,92.05 295.20,89.60"/>
    </edge>
    <edge id=":B0_c0" function="crossing" crossingEdges="out_N_B0 in_N_B0">
        <lane id=":B0_c0_0" index="0" allow="pedestrian" speed="2.78" length="12.80" width="4.00" shape="306.40,100.00 293.60,100.00" outlineShape="306.40,102.00 293.60,102.00 293.49,101.39 293.16,100.89 292.60,100.50 291.82,100.22 291.25,100.13 293.60,98.00 306.40,98.00 308.75,100.13 308.18,100.22 307.40,100.50 306.84,100.89 306.51,101.39"/>
    </edge>
    <edge id=":B0_c1" function="crossing" crossingEdges="B0C0">
        <lane id=":B0_c1_0" index="0" allow="pedestrian" speed="2.78" length="6.40" width="4.00" shape="308.40,93.60 308.40,100.00" outlineShape="310.40,93.50 310.40,100.10 306.40,102.00 308.40,102.00 310.40,100.00 306.40,100.00 306.40,93.60 306.73,91.49 306.84,91.82 307.40,92.60 308.18,93.16 309.18,93.49"/>
    </edge>
    <edge id=":B0_c2" function="crossing" crossingEdges="out_S_B0 in_S_B0">
        <lane id=":B0_c2_0" index="0" allow="pedestrian" speed="2.78" length="12.80" width="4.00" shape="293.60,91.60 306.40,91.60" outlineShape="293.60,89.60 306.40,89.60 310.40,93.60 310.40,91.60 308.40,89.60 306.40,89.60 310.40,93.60 289.60,93.60 290.82,93.49 291.82,93.16 292.60,92.60 293.16,91.82 293.49,90.82"/>
    </edge>
    <edge id=":B0_c3" function="crossing" crossingEdges="A0B0">
        <lane id=":B0_c3_0" index="0" allow="pedestrian" speed="2.78" length="6.40" width="4.00" shape="291.60,100.00 291.60,93.60" outlineShape="289.60,100.10 289.60,93.50 290.82,93.49 291.82,93.16 292.60,92.60 293.16,91.82 293.27,91.49 293.60,93.60 293.60,100.00 293.60,102.00 293.49,101.39 293.16,100.89 292.60,100.50 291.82,100.22 290.82,100.06"/>
    </edge>
    <edge id=":B0_w0" function="walkingarea">
        <lane id=":B0_w0_0" index="0" allow="pedestrian" speed="2.78" length="2.16" width="4.00" shape="289.60,100.00 291.60,102.00 293.60,102.00 293.49,101.39 293.16,100.89 292.60,100.50 291.82,100.22 290.82,100.06"/>
    </edge>
    <edge id=":B0_w1" function="walkingarea">
        <lane id=":B0_w1_0" index="0" allow="pedestrian" speed="2.78" length="2.16" width="4.00" shape="306.40,102.00 308.40,102.00 310.40,100.00 309.18,100.06 308.18,100.22 307.40,100.50 306.84,100.89 306.51,101.39"/>
    </edge>
    <edge id=":B0_w2" function="walkingarea">
        <lane id=":B0_w2_0" index="0" allow="pedestrian" speed="2.78" length="3.30" width="4.00" shape="310.40,93.60 310.40,91.60 308.40,89.60 306.40,89.60 306.51,90.82 306.84,91.82 307.40,92.60 308.18,93.16 309.18,93.49"/>
    </edge>
    <edge id=":B0_w3" function="walkingarea">
        <lane id=":B0_w3_0" index="0" allow="pedestrian" speed="2.78" length="3.30" width="4.00" shape="293.60,89.60 291.60,89.60 289.60,91.60 289.60,93.60 290.82,93.49 291.82,93.16 292.60,92.60 293.16,91.82 293.49,90.82"/>
    </edge>
    <edge id=":C0_0" function="internal">
        <lane id=":C0_0_0" index="0" disallow="pedestrian" speed="13.89" length="12.40" shape="595.20,102.00 595.20,89.60"/>
        <lane id=":C0_0_1" index="1" disallow="pedestrian" speed="13.89" length="12.40" shape="598.40,102.00 598.40,89.60"/>
    </edge>
    <edge id=":C0_2" function="internal">
        <lane id=":C0_2_0" index="0" disallow="pedestrian" speed="7.77" length="1.63" shape="598.40,102.00 599.10,100.53"/>
    </edge>
    <edge id=":C0_10" function="internal">
        <lane id=":C0_10_0" index="0" disallow="pedestrian" speed="7.77" length="11.70" shape="599.10,100.53 599.15,100.43 601.40,99.30 605.15,98.62 610.40,98.40"/>
    </edge>
    <edge id=":C0_3" function="internal">
        <lane id=":C0_3_0" index="0" disallow="pedestrian" speed="6.51" length="4.75" shape="604.80,89.60 605.15,92.05 606.20,93.80 606.40,93.92"/>
    </edge>
    <edge id=":C0_4" function="internal">
        <lane id=":C0_4_0" index="0" disallow="pedestrian" speed="13.89" length="12.40" shape="604.80,89.60 604.80,102.00"/>
        <lane id=":C0_4_1" index="1" disallow="pedestrian" speed="13.89" length="12.40" shape="601.60,89.60 601.60,102.00"/>
    </edge>
    <edge id=":C0_11" function="internal">
        <lane id=":C0_11_0" index="0" disallow="pedestrian" speed="6.51" length="4.28" shape="606.40,93.92 607.95,94.85 610.40,95.20"/>
    </edge>
    <edge id=":C0_6" function="internal">
        <lane id=":C0_6_0" index="0" disallow="pedestrian" speed="6.51" length="4.75" shape="589.60,95.20 592.05,94.85 593.80,93.80 593.92,93.60"/>
    </edge>
    <edge id=":C0_7" function="internal">
        <lane id=":C0_7_0" index="0" disallow="pedestrian" speed="13.89" length="20.80" shape="589.60,95.20 610.40,95.20"/>
        <lane id=":C0_7_1" index="1" disallow="pedestrian" speed="13.89" length="20.80" shape="589.60,98.40 610.40,98.40"/>
    </edge>
    <edge id=":C0_9" function="internal">
        <lane id=":C0_9_0" index="0" disallow="pedestrian" speed="7.77" length="13.33" shape="589.60,98.40 594.85,98.62 598.60,99.30 600.85,100.43 601.60,102.00"/>
    </edge>
    <edge id=":C0_12" function="internal">
        <lane id=":C0_12_0" index="0" disallow="pedestrian" speed="6.51" length="4.28" shape="593.92,93.60 594.85,92.05 595.20,89.60"/>
    </edge>
    <edge id=":C0_c0" function="crossing" crossingEdges="out_N_C0 in_N_C0">
        <lane id=":C0_c0_0" index="0" allow="pedestrian" speed="2.78" length="12.80" width="4.00" shape="606.40,100.00 593.60,100.00" outlineShape="606.40,102.00 593.60,102.00 593.49,101.39 593.16,100.89 592.60,100.50 591.82,100.22 591.25,100.13 593.60,98.00 606.40,98.00 608.75,100.13 608.18,100.22 607.40,100.50 606.84,100.89 606.51,101.39"/>
    </edge>
    <edge id=":C0_c1" function="crossing" crossingEdges="C0D0">
        <lane id=":C0_c1_0" index="0" allow="pedestrian" speed="2.78" length="6.40" width="4.00" shape="608.40,93.60 608.40,100.00" outlineShape="610.40,93.50 610.40,100.10 606.40,102.00 608.40,102.00 610.40,100.00 606.40,100.00 606.40,93.60 606.73,91.49 606.84,91.82 607.40,92.60 608.18,93.16 609.18,93.49"/>
    </edge>
    <edge id=":C0_c2" function="crossing" crossingEdges="out_S_C0 in_S_C0">
        <lane id=":C0_c2_0" index="0" allow="pedestrian" speed="2.78" length="12.80" width="4.00" shape="593.60,91.60 606.40,91.60" outlineShape="593.60,89.60 606.40,89.60 610.40,93.60 610.40,91.60 608.40,89.60 606.40,89.60 610.40,93.60 589.60,93.60 590.82,93.49 591.82,93.16 592.60,92.60 593.16,91.82 593.49,90.82"/>
    </edge>
    <edge id=":C0_c3" function="crossing" crossingEdges="B0C0">
        <lane id=":C0_c3_0" index="0" allow="pedestrian" speed="2.78" length="6.40" width="4.00" shape="591.60,100.00 591.60,93.60" outlineShape="589.60,100.10 589.60,93.50 590.82,93.49 591.82,93.16 592.60,92.60 593.16,91.82 593.27,91.49 593.60,93.60 593.60,100.00 593.60,102.00 593.49,101.39 593.16,100.89 592.60,100.50 591.82,100.22 590.82,100.06"/>
    </edge>
    <edge id=":C0_w0" function="walkingarea">
        <lane id=":C0_w0_0" index="0" allow="pedestrian" speed="2.78" length="2.16" width="4.00" shape="589.60,100.00 591.60,102.00 593.60,102.00 593.49,101.39 593.16,100.89 592.60,100.50 591.82,100.22 590.82,100.06"/>
    </edge>
    <edge id=":C0_w1" function="walkingarea">
        <lane id=":C0_w1_0" index="0" allow="pedestrian" speed="2.78" length="2.16" width="4.00" shape="606.40,102.00 608.40,102.00 610.40,100.00 609.18,100.06 608.18,100.22 607.40,100.50 606.84,100.89 606.51,101.39"/>
    </edge>
    <edge id=":C0_w2" function="walkingarea">
        <lane id=":C0_w2_0" index="0" allow="pedestrian" speed="2.78" length="3.30" width="4.00" shape="610.40,93.60 610.40,91.60 608.40,89.60 606.40,89.60 606.51,90.82 606.84,91.82 607.40,92.60 608.18,93.16 609.18,93.49"/>
    </edge>
    <edge id=":C0_w3" function="walkingarea">
        <lane id=":C0_w3_0" index="0" allow="pedestrian" speed="2.78" length="3.30" width="4.00" shape="593.60,89.60 591.60,89.60 589.60,91.60 589.60,93.60 590.82,93.49 591.82,93.16 592.60,92.60 593.16,91.82 593.49,90.82"/>
    </edge>
    <edge id=":N_B0_w0" function="walkingarea">
        <lane id=":N_B0_w0_0" index="0" allow="pedestrian" speed="2.78" length="14.80" width="2.00" shape="293.60,200.00 291.60,200.00 308.40,200.00 306.40,200.00"/>
    </edge>
    <edge id=":N_C0_w0" function="walkingarea">
        <lane id=":N_C0_w0_0" index="0" allow="pedestrian" speed="2.78" length="14.80" width="2.00" shape="593.60,200.00 591.60,200.00 608.40,200.00 606.40,200.00"/>
    </edge>
    <edge id=":S_B0_w0" function="walkingarea">
        <lane id=":S_B0_w0_0" index="0" allow="pedestrian" speed="2.78" length="14.80" width="2.00" shape="306.40,0.00 308.40,0.00 291.60,0.00 293.60,0.00"/>
    </edge>
    <edge id=":S_C0_w0" function="walkingarea">
        <lane id=":S_C0_w0_0" index="0" allow="pedestrian" speed="2.78" length="14.80" width="2.00" shape="606.40,0.00 608.40,0.00 591.60,0.00 593.60,0.00"/>
    </edge>

    <edge id="A0B0" from="A0" to="B0" priority="-1">
        <lane id="A0B0_0" index="0" allow="pedestrian" speed="13.89" length="289.60" width="2.00" shape="0.00,92.60 289.60,92.60"/>
        <lane id="A0B0_1" index="1" disallow="pedestrian" speed="13.89" length="289.60" shape="0.00,95.20 289.60,95.20"/>
        <lane id="A0B0_2" index="2" disallow="pedestrian" speed="13.89" length="289.60" shape="0.00,98.40 289.60,98.40"/>
    </edge>
    <edge id="B0C0" from="B0" to="C0" priority="-1">
        <lane id="B0C0_0" index="0" allow="pedestrian" speed="13.89" length="279.20" width="2.00" shape="310.40,92.60 589.60,92.60"/>
        <lane id="B0C0_1" index="1" disallow="pedestrian" speed="13.89" length="279.20" shape="310.40,95.20 589.60,95.20"/>
        <lane id="B0C0_2" index="2" disallow="pedestrian" speed="13.89" length="279.20" shape="310.40,98.40 589.60,98.40"/>
    </edge>
    <edge id="C0D0" from="C0" to="D0" priority="-1">
        <lane id="C0D0_0" index="0" allow="pedestrian" speed="13.89" length="289.60" width="2.00" shape="610.40,92.60 900.00,92.60"/>
        <lane id="C0D0_1" index="1" disallow="pedestrian" speed="13.89" length="289.60" shape="610.40,95.20 900.00,95.20"/>
        <lane id="C0D0_2" index="2" disallow="pedestrian" speed="13.89" length="289.60" shape="610.40,98.40 900.00,98.40"/>
    </edge>
    <edge id="in_N_B0" from="N_B0" to="B0" priority="-1">
        <lane id="in_N_B0_0" index="0" allow="pedestrian" speed="13.89" length="98.00" width="2.00" shape="292.60,200.00 292.60,102.00"/>
        <lane id="in_N_B0_1" index="1" disallow="pedestrian" speed="13.89" length="98.00" shape="295.20,200.00 295.20,102.00"/>
        <lane id="in_N_B0_2" index="2" disallow="pedestrian" speed="13.89" length="98.00" shape="298.40,200.00 298.40,102.00"/>
    </edge>
    <edge id="in_N_C0" from="N_C0" to="C0" priority="-1">
        <lane id="in_N_C0_0" index="0" allow="pedestrian" speed="13.89" length="98.00" width="2.00" shape="592.60,200.00 592.60,102.00"/>
        <lane id="in_N_C0_1" index="1" disallow="pedestrian" speed="13.89" length="98.00" shape="595.20,200.00 595.20,102.00"/>
        <lane id="in_N_C0_2" index="2" disallow="pedestrian" speed="13.89" length="98.00" shape="598.40,200.00 598.40,102.00"/>
    </edge>
    <edge id="in_S_B0" from="S_B0" to="B0" priority="-1">
        <lane id="in_S_B0_0" index="0" allow="pedestrian" speed="13.89" length="89.60" width="2.00" shape="307.40,0.00 307.40,89.60"/>
        <lane id="in_S_B0_1" index="1" disallow="pedestrian" speed="13.89" length="89.60" shape="304.80,0.00 304.80,89.60"/>
        <lane id="in_S_B0_2" index="2" disallow="pedestrian" speed="13.89" length="89.60" shape="301.60,0.00 301.60,89.60"/>
    </edge>
    <edge id="in_S_C0" from="S_C0" to="C0" priority="-1">
        <lane id="in_S_C0_0" index="0" allow="pedestrian" speed="13.89" length="89.60" width="2.00" shape="607.40,0.00 607.40,89.60"/>
        <lane id="in_S_C0_1" index="1" disallow="pedestrian" speed="13.89" length="89.60" shape="604.80,0.00 604.80,89.60"/>
        <lane id="in_S_C0_2" index="2" disallow="pedestrian" speed="13.89" length="89.60" shape="601.60,0.00 601.60,89.60"/>
    </edge>
    <edge id="out_N_B0" from="B0" to="N_B0" priority="-1">
        <lane id="out_N_B0_0" index="0" allow="pedestrian" speed="13.89" length="98.00" width="2.00" shape="307.40,102.00 307.40,200.00"/>
        <lane id="out_N_B0_1" index="1" disallow="pedestrian" speed="13.89" length="98.00" shape="304.80,102.00 304.80,200.00"/>
        <lane id="out_N_B0_2" index="2" disallow="pedestrian" speed="13.89" length="98.00" shape="301.60,102.00 301.60,200.00"/>
    </edge>
    <edge id="out_N_C0" from="C0" to="N_C0" priority="-1">
        <lane id="out_N_C0_0" index="0" allow="pedestrian" speed="13.89" length="98.00" width="2.00" shape="607.40,102.00 607.40,200.00"/>
        <lane id="out_N_C0_1" index="1" disallow="pedestrian" speed="13.89" length="98.00" shape="604.80,102.00 604.80,200.00"/>
        <lane id="out_N_C0_2" index="2" disallow="pedestrian" speed="13.89" length="98.00" shape="601.60,102.00 601.60,200.00"/>
    </edge>
    <edge id="out_S_B0" from="B0" to="S_B0" priority="-1">
        <lane id="out_S_B0_0" index="0" allow="pedestrian" speed="13.89" length="89.60" width="2.00" shape="292.60,89.60 292.60,0.00"/>
        <lane id="out_S_B0_1" index="1" disallow="pedestrian" speed="13.89" length="89.60" shape="295.20,89.60 295.20,0.00"/>
        <lane id="out_S_B0_2" index="2" disallow="pedestrian" speed="13.89" length="89.60" shape="298.40,89.60 298.40,0.00"/>
    </edge>
    <edge id="out_S_C0" from="C0" to="S_C0" priority="-1">
        <lane id="out_S_C0_0" index="0" allow="pedestrian" speed="13.89" length="89.60" width="2.00" shape="592.60,89.60 592.60,0.00"/>
        <lane id="out_S_C0_1" index="1" disallow="pedestrian" speed="13.89" length="89.60" shape="595.20,89.60 595.20,0.00"/>
        <lane id="out_S_C0_2" index="2" disallow="pedestrian" speed="13.89" length="89.60" shape="598.40,89.60 598.40,0.00"/>
    </edge>

    <tlLogic id="B0" type="static" programID="0" offset="0">
        <phase duration="42" state="GGgGGGrrrrrrrr"/>
        <phase duration="3"  state="yyyyyyrrrrrrrr"/>
        <phase duration="42" state="rrrrrrGGGgrrrr"/>
        <phase duration="3"  state="rrrrrryyyyrrrr"/>
    </tlLogic>
    <tlLogic id="C0" type="static" programID="0" offset="0">
        <phase duration="42" state="GGgGGGrrrrrrrr"/>
        <phase duration="3"  state="yyyyyyrrrrrrrr"/>
        <phase duration="42" state="rrrrrrGGGgrrrr"/>
        <phase duration="3"  state="rrrrrryyyyrrrr"/>
    </tlLogic>

    <junction id="A0" type="dead_end" x="0.00" y="100.00" incLanes="" intLanes="" shape="0.00,100.00 0.00,91.60"/>
    <junction id="B0" type="traffic_light" x="300.00" y="100.00" incLanes="in_N_B0_0 in_N_B0_1 in_N_B0_2 in_S_B0_0 in_S_B0_1 in_S_B0_2 A0B0_0 A0B0_1 A0B0_2 :B0_w1_0 :B0_w2_0 :B0_w3_0 :B0_w0_0" intLanes=":B0_0_0 :B0_0_1 :B0_10_0 :B0_11_0 :B0_4_0 :B0_4_1 :B0_12_0 :B0_7_0 :B0_7_1 :B0_9_0 :B0_c0_0 :B0_c1_0 :B0_c2_0 :B0_c3_0" shape="291.60,102.00 308.40,102.00 308.62,100.89 308.90,100.50 309.29,100.22 309.79,100.06 310.40,100.00 310.40,91.60 309.29,91.38 308.90,91.10 308.62,90.71 308.46,90.21 308.40,89.60 291.60,89.60 291.38,90.71 291.10,91.10 290.71,91.38 290.21,91.54 289.60,91.60 289.60,100.00 290.71,100.22 291.10,100.50 291.38,100.89 291.54,101.39">
        <request index="0"  response="01010001000000" foes="01011111000000" cont="0"/>
        <request index="1"  response="01010000000000" foes="01011111000000" cont="0"/>
        <request index="2"  response="00110000110000" foes="00111110110000" cont="1"/>
        <request index="3"  response="01100000000000" foes="01100110000000" cont="1"/>
        <request index="4"  response="01010000000000" foes="01011110000100" cont="0"/>
        <request index="5"  response="01010000000000" foes="01011110000100" cont="0"/>
        <request index="6"  response="11000000000011" foes="11000000000011" cont="1"/>
        <request index="7"  response="10100000111111" foes="10100000111111" cont="0"/>
        <request index="8"  response="10100000111111" foes="10100000111111" cont="0"/>
        <request index="9"  response="10010000110111" foes="10010000110111" cont="0"/>
        <request index="10" response="00000000000000" foes="00001000110111" cont="0"/>
        <request index="11" response="00000000000000" foes="00000110001100" cont="0"/>
        <request index="12" response="00000000000000" foes="00000001111011" cont="0"/>
        <request index="13" response="00000000000000" foes="00001111000000" cont="0"/>
    </junction>
    <junction id="C0" type="traffic_light" x="600.00" y="100.00" incLanes="in_N_C0_0 in_N_C0_1 in_N_C0_2 in_S_C0_0 in_S_C0_1 in_S_C0_2 B0C0_0 B0C0_1 B0C0_2 :C0_w1_0 :C0_w2_0 :C0_w3_0 :C0_w0_0" intLanes=":C0_0_0 :C0_0_1 :C0_10_0 :C0_11_0 :C0_4_0 :C0_4_1 :C0_12_0 :C0_7_0 :C0_7_1 :C0_9_0 :C0_c0_0 :C0_c1_0 :C0_c2_0 :C0_c3_0" shape="591.60,102.00 608.40,102.00 608.62,100.89 608.90,100.50 609.29,100.22 609.79,100.06 610.40,100.00 610.40,91.60 609.29,91.38 608.90,91.10 608.62,90.71 608.46,90.21 608.40,89.60 591.60,89.60 591.38,90.71 591.10,91.10 590.71,91.38 590.21,91.54 589.60,91.60 589.60,100.00 590.71,100.22 591.10,100.50 591.38,100.89 591.54,101.39">
        <request index="0"  response="01010001000000" foes="01011111000000" cont="0"/>
        <request index="1"  response="01010000000000" foes="01011111000000" cont="0"/>
        <request index="2"  response="00110000110000" foes="00111110110000" cont="1"/>
        <request index="3"  response="01100000000000" foes="01100110000000" cont="1"/>
        <request index="4"  response="01010000000000" foes="01011110000100" cont="0"/>
        <request index="5"  response="01010000000000" foes="01011110000100" cont="0"/>
        <request index="6"  response="11000000000011" foes="11000000000011" cont="1"/>
        <request index="7"  response="10100000111111" foes="10100000111111" cont="0"/>
        <request index="8"  response="10100000111111" foes="10100000111111" cont="0"/>
        <request index="9"  response="10010000110111" foes="10010000110111" cont="0"/>
        <request index="10" response="00000000000000" foes="00001000110111" cont="0"/>
        <request index="11" response="00000000000000" foes="00000110001100" cont="0"/>
        <request index="12" response="00000000000000" foes="00000001111011" cont="0"/>
        <request index="13" response="00000000000000" foes="00001111000000" cont="0"/>
    </junction>
    <junction id="D0" type="dead_end" x="900.00" y="100.00" incLanes="C0D0_0 C0D0_1 C0D0_2" intLanes="" shape="900.00,91.60 900.00,100.00"/>
    <junction id="N_B0" type="dead_end" x="300.00" y="200.00" incLanes="out_N_B0_0 out_N_B0_1 out_N_B0_2" intLanes="" shape="300.00,200.00 308.40,200.00 300.00,200.00"/>
    <junction id="N_C0" type="dead_end" x="600.00" y="200.00" incLanes="out_N_C0_0 out_N_C0_1 out_N_C0_2" intLanes="" shape="600.00,200.00 608.40,200.00 600.00,200.00"/>
    <junction id="S_B0" type="dead_end" x="300.00" y="0.00" incLanes="out_S_B0_0 out_S_B0_1 out_S_B0_2" intLanes="" shape="300.00,0.00 291.60,0.00 300.00,0.00"/>
    <junction id="S_C0" type="dead_end" x="600.00" y="0.00" incLanes="out_S_C0_0 out_S_C0_1 out_S_C0_2" intLanes="" shape="600.00,0.00 591.60,0.00 600.00,0.00"/>

    <junction id=":B0_10_0" type="internal" x="299.10" y="100.53" incLanes=":B0_2_0 in_S_B0_1 in_S_B0_2" intLanes=":B0_3_0 :B0_4_0 :B0_4_1 :B0_7_0 :B0_7_1 :B0_9_0 :B0_c0_0 :B0_c1_0"/>
    <junction id=":B0_11_0" type="internal" x="306.40" y="93.92" incLanes=":B0_3_0" intLanes=":B0_2_0 :B0_7_0 :B0_7_1 :B0_c1_0 :B0_c2_0"/>
    <junction id=":B0_12_0" type="internal" x="293.92" y="93.60" incLanes=":B0_6_0" intLanes=":B0_0_0 :B0_0_1 :B0_c2_0 :B0_c3_0"/>
    <junction id=":C0_10_0" type="internal" x="599.10" y="100.53" incLanes=":C0_2_0 in_S_C0_1 in_S_C0_2" intLanes=":C0_3_0 :C0_4_0 :C0_4_1 :C0_7_0 :C0_7_1 :C0_9_0 :C0_c0_0 :C0_c1_0"/>
    <junction id=":C0_11_0" type="internal" x="606.40" y="93.92" incLanes=":C0_3_0" intLanes=":C0_2_0 :C0_7_0 :C0_7_1 :C0_c1_0 :C0_c2_0"/>
    <junction id=":C0_12_0" type="internal" x="593.92" y="93.60" incLanes=":C0_6_0" intLanes=":C0_0_0 :C0_0_1 :C0_c2_0 :C0_c3_0"/>

    <connection from="A0B0" to="out_S_B0" fromLane="1" toLane="1" via=":B0_6_0" tl="B0" linkIndex="6" dir="r" state="o"/>
    <connection from="A0B0" to="B0C0" fromLane="1" toLane="1" via=":B0_7_0" tl="B0" linkIndex="7" dir="s" state="o"/>
    <connection from="A0B0" to="B0C0" fromLane="2" toLane="2" via=":B0_7_1" tl="B0" linkIndex="8" dir="s" state="o"/>
    <connection from="A0B0" to="out_N_B0" fromLane="2" toLane="2" via=":B0_9_0" tl="B0" linkIndex="9" dir="l" state="o"/>
    <connection from="B0C0" to="out_S_C0" fromLane="1" toLane="1" via=":C0_6_0" tl="C0" linkIndex="6" dir="r" state="o"/>
    <connection from="B0C0" to="C0D0" fromLane="1" toLane="1" via=":C0_7_0" tl="C0" linkIndex="7" dir="s" state="o"/>
    <connection from="B0C0" to="C0D0" fromLane="2" toLane="2" via=":C0_7_1" tl="C0" linkIndex="8" dir="s" state="o"/>
    <connection from="B0C0" to="out_N_C0" fromLane="2" toLane="2" via=":C0_9_0" tl="C0" linkIndex="9" dir="l" state="o"/>
    <connection from="in_N_B0" to="out_S_B0" fromLane="1" toLane="1" via=":B0_0_0" tl="B0" linkIndex="0" dir="s" state="o"/>
    <connection from="in_N_B0" to="out_S_B0" fromLane="2" toLane="2" via=":B0_0_1" tl="B0" linkIndex="1" dir="s" state="o"/>
    <connection from="in_N_B0" to="B0C0" fromLane="2" toLane="2" via=":B0_2_0" tl="B0" linkIndex="2" dir="l" state="o"/>
    <connection from="in_N_C0" to="out_S_C0" fromLane="1" toLane="1" via=":C0_0_0" tl="C0" linkIndex="0" dir="s" state="o"/>
    <connection from="in_N_C0" to="out_S_C0" fromLane="2" toLane="2" via=":C0_0_1" tl="C0" linkIndex="1" dir="s" state="o"/>
    <connection from="in_N_C0" to="C0D0" fromLane="2" toLane="2" via=":C0_2_0" tl="C0" linkIndex="2" dir="l" state="o"/>
    <connection from="in_S_B0" to="B0C0" fromLane="1" toLane="1" via=":B0_3_0" tl="B0" linkIndex="3" dir="r" state="o"/>
    <connection from="in_S_B0" to="out_N_B0" fromLane="1" toLane="1" via=":B0_4_0" tl="B0" linkIndex="4" dir="s" state="o"/>
    <connection from="in_S_B0" to="out_N_B0" fromLane="2" toLane="2" via=":B0_4_1" tl="B0" linkIndex="5" dir="s" state="o"/>
    <connection from="in_S_C0" to="C0D0" fromLane="1" toLane="1" via=":C0_3_0" tl="C0" linkIndex="3" dir="r" state="o"/>
    <connection from="in_S_C0" to="out_N_C0" fromLane="1" toLane="1" via=":C0_4_0" tl="C0" linkIndex="4" dir="s" state="o"/>
    <connection from="in_S_C0" to="out_N_C0" fromLane="2" toLane="2" via=":C0_4_1" tl="C0" linkIndex="5" dir="s" state="o"/>

    <connection from=":B0_0" to="out_S_B0" fromLane="0" toLane="1" dir="s" state="M"/>
    <connection from=":B0_0" to="out_S_B0" fromLane="1" toLane="2" dir="s" state="M"/>
    <connection from=":B0_2" to="B0C0" fromLane="0" toLane="2" via=":B0_10_0" dir="l" state="m"/>
    <connection from=":B0_10" to="B0C0" fromLane="0" toLane="2" dir="l" state="m"/>
    <connection from=":B0_3" to="B0C0" fromLane="0" toLane="1" via=":B0_11_0" dir="r" state="m"/>
    <connection from=":B0_11" to="B0C0" fromLane="0" toLane="1" dir="r" state="m"/>
    <connection from=":B0_4" to="out_N_B0" fromLane="0" toLane="1" dir="s" state="M"/>
    <connection from=":B0_4" to="out_N_B0" fromLane="1" toLane="2" dir="s" state="M"/>
    <connection from=":B0_6" to="out_S_B0" fromLane="0" toLane="1" via=":B0_12_0" dir="r" state="m"/>
    <connection from=":B0_12" to="out_S_B0" fromLane="0" toLane="1" dir="r" state="m"/>
    <connection from=":B0_7" to="B0C0" fromLane="0" toLane="1" dir="s" state="M"/>
    <connection from=":B0_7" to="B0C0" fromLane="1" toLane="2" dir="s" state="M"/>
    <connection from=":B0_9" to="out_N_B0" fromLane="0" toLane="2" dir="l" state="M"/>
    <connection from=":C0_0" to="out_S_C0" fromLane="0" toLane="1" dir="s" state="M"/>
    <connection from=":C0_0" to="out_S_C0" fromLane="1" toLane="2" dir="s" state="M"/>
    <connection from=":C0_2" to="C0D0" fromLane="0" toLane="2" via=":C0_10_0" dir="l" state="m"/>
    <connection from=":C0_10" to="C0D0" fromLane="0" toLane="2" dir="l" state="m"/>
    <connection from=":C0_3" to="C0D0" fromLane="0" toLane="1" via=":C0_11_0" dir="r" state="m"/>
    <connection from=":C0_11" to="C0D0" fromLane="0" toLane="1" dir="r" state="m"/>
    <connection from=":C0_4" to="out_N_C0" fromLane="0" toLane="1" dir="s" state="M"/>
    <connection from=":C0_4" to="out_N_C0" fromLane="1" toLane="2" dir="s" state="M"/>
    <connection from=":C0_6" to="out_S_C0" fromLane="0" toLane="1" via=":C0_12_0" dir="r" state="m"/>
    <connection from=":C0_12" to="out_S_C0" fromLane="0" toLane="1" dir="r" state="m"/>
    <connection from=":C0_7" to="C0D0" fromLane="0" toLane="1" dir="s" state="M"/>
    <connection from=":C0_7" to="C0D0" fromLane="1" toLane="2" dir="s" state="M"/>
    <connection from=":C0_9" to="out_N_C0" fromLane="0" toLane="2" dir="l" state="M"/>

    <connection from=":B0_c0" to=":B0_w0" fromLane="0" toLane="0" dir="s" state="M"/>
    <connection from=":B0_c1" to=":B0_w1" fromLane="0" toLane="0" dir="s" state="M"/>
    <connection from=":B0_c2" to=":B0_w2" fromLane="0" toLane="0" dir="s" state="M"/>
    <connection from=":B0_c3" to=":B0_w3" fromLane="0" toLane="0" dir="s" state="M"/>
    <connection from=":B0_w0" to=":B0_c3" fromLane="0" toLane="0" tl="B0" linkIndex="13" dir="s" state="M"/>
    <connection from="in_N_B0" to=":B0_w0" fromLane="0" toLane="0" dir="s" state="M"/>
    <connection from=":B0_w1" to=":B0_c0" fromLane="0" toLane="0" tl="B0" linkIndex="10" dir="s" state="M"/>
    <connection from=":B0_w1" to="out_N_B0" fromLane="0" toLane="0" dir="s" state="M"/>
    <connection from=":B0_w2" to=":B0_c1" fromLane="0" toLane="0" tl="B0" linkIndex="11" dir="s" state="M"/>
    <connection from=":B0_w2" to="B0C0" fromLane="0" toLane="0" dir="s" state="M"/>
    <connection from="in_S_B0" to=":B0_w2" fromLane="0" toLane="0" dir="s" state="M"/>
    <connection from=":B0_w3" to=":B0_c2" fromLane="0" toLane="0" tl="B0" linkIndex="12" dir="s" state="M"/>
    <connection from=":B0_w3" to="out_S_B0" fromLane="0" toLane="0" dir="s" state="M"/>
    <connection from="A0B0" to=":B0_w3" fromLane="0" toLane="0" dir="s" state="M"/>
    <connection from=":C0_c0" to=":C0_w0" fromLane="0" toLane="0" dir="s" state="M"/>
    <connection from=":C0_c1" to=":C0_w1" fromLane="0" toLane="0" dir="s" state="M"/>