<?xml version="1.0" encoding="UTF-8"?>
<routes>
    <vType id="standard_car" vClass="passenger" accel="2.6" decel="4.5" sigma="0.5" length="4.5" maxSpeed="15"/>
    <flow id="flow_0" begin="0" end="3600" probability="0.187" from="in_N" to="out_S" type="standard_car" departLane="best" departSpeed="max"/>
    <flow id="flow_1" begin="0" end="3600" probability="0.148" from="in_N" to="out_E" type="standard_car" departLane="best" departSpeed="max"/>
    <flow id="flow_2" begin="0" end="3600" probability="0.148" from="in_N" to="out_W" type="standard_car" departLane="best" departSpeed="max"/>
    <flow id="flow_3" begin="0" end="3600" probability="0.186" from="in_S" to="out_N" type="standard_car" departLane="best" departSpeed="max"/>
    <flow id="flow_4" begin="0" end="3600" probability="0.134" from="in_S" to="out_E" type="standard_car" departLane="best" departSpeed="max"/>
    <flow id="flow_5" begin="0" end="3600" probability="0.158" from="in_S" to="out_W" type="standard_car" departLane="best" departSpeed="max"/>
    <flow id="flow_6" begin="0" end="3600" probability="0.071" from="in_W" to="out_E" type="standard_car" departLane="best" departSpeed="max"/>
    <flow id="flow_7" begin="0" end="3600" probability="0.051" from="in_W" to="out_N" type="standard_car" departLane="best" departSpeed="max"/>
    <flow id="flow_8" begin="0" end="3600" probability="0.048" from="in_W" to="out_S" type="standard_car" departLane="best" departSpeed="max"/>
    <flow id="flow_9" begin="0" end="3600" probability="0.064" from="int_E" to="out_W" type="standard_car" departLane="best" departSpeed="max"/>
    <flow id="flow_10" begin="0" end="3600" probability="0.053" from="int_E" to="out_N" type="standard_car" departLane="best" departSpeed="max"/>
    <flow id="flow_11" begin="0" end="3600" probability="0.054" from="int_E" to="out_S" type="standard_car" departLane="best" departSpeed="max"/>
</routes>
