<?xml version="1.0" encoding="UTF-8"?>
<routes>
    <vType id="standard_car" vClass="passenger" accel="2.6" decel="4.5" sigma="0.5" length="4.5" maxSpeed="15"/>
    <flow id="flow_0" begin="0" end="3600" probability="0.195" from="in_N" to="out_S" type="standard_car" departLane="best" departSpeed="max"/>
    <flow id="flow_1" begin="0" end="3600" probability="0.196" from="in_N" to="out_E" type="standard_car" departLane="best" departSpeed="max"/>
    <flow id="flow_2" begin="0" end="3600" probability="0.127" from="in_N" to="out_W" type="standard_car" departLane="best" departSpeed="max"/>
    <flow id="flow_3" begin="0" end="3600" probability="0.200" from="in_S" to="out_N" type="standard_car" departLane="best" departSpeed="max"/>
    <flow id="flow_4" begin="0" end="3600" probability="0.172" from="in_S" to="out_E" type="standard_car" departLane="best" departSpeed="max"/>
    <flow id="flow_5" begin="0" end="3600" probability="0.208" from="in_S" to="out_W" type="standard_car" departLane="best" departSpeed="max"/>
    <flow id="flow_6" begin="0" end="3600" probability="0.072" from="in_W" to="out_E" type="standard_car" departLane="best" departSpeed="max"/>
    <flow id="flow_7" begin="0" end="3600" probability="0.072" from="in_W" to="out_N" type="standard_car" departLane="best" departSpeed="max"/>
    <flow id="flow_8" begin="0" end="3600" probability="0.060" from="in_W" to="out_S" type="standard_car" departLane="best" departSpeed="max"/>
    <flow id="flow_9" begin="0" end="3600" probability="0.058" from="int_E" to="out_W" type="standard_car" departLane="best" departSpeed="max"/>
    <flow id="flow_10" begin="0" end="3600" probability="0.055" from="int_E" to="out_N" type="standard_car" departLane="best" departSpeed="max"/>
    <flow id="flow_11" begin="0" end="3600" probability="0.062" from="int_E" to="out_S" type="standard_car" departLane="best" departSpeed="max"/>
</routes>
