<?xml version="1.0" encoding="UTF-8"?>
<additional>
    <poly id="ground" type="ground" color="223,226,221" fill="1" layer="-10" shape="-189.0,-126.5 202.4,-126.5 202.4,167.7 -189.0,167.7 -189.0,-126.5"/>
    <poly id="bldg_0" type="building" color="199,190,178" fill="1" layer="-5" shape="-183.7,-123.6 -169.1,-123.6 -169.1,-109.2 -183.7,-109.2 -183.7,-123.6"/>
    <poly id="park_1" type="park" color="168,200,148" fill="1" layer="-6" shape="-183.8,-97.2 -168.2,-97.2 -168.2,-83.5 -183.8,-83.5 -183.8,-97.2"/>
    <poly id="bldg_2" type="building" color="208,200,186" fill="1" layer="-5" shape="-184.1,-76.3 -169.8,-76.3 -169.8,-60.5 -184.1,-60.5 -184.1,-76.3"/>
    <poly id="bldg_3" type="building" color="212,198,182" fill="1" layer="-5" shape="-185.4,-51.5 -168.9,-51.5 -168.9,-35.3 -185.4,-35.3 -185.4,-51.5"/>
    <poly id="park_4" type="park" color="168,200,148" fill="1" layer="-6" shape="-186.0,-27.3 -169.2,-27.3 -169.2,-12.5 -186.0,-12.5 -186.0,-27.3"/>
    <poly id="bldg_5" type="building" color="196,188,176" fill="1" layer="-5" shape="-184.8,-2.0 -170.3,-2.0 -170.3,11.7 -184.8,11.7 -184.8,-2.0"/>
    <poly id="bldg_6" type="building" color="184,176,164" fill="1" layer="-5" shape="-182.8,20.8 -167.3,20.8 -167.3,37.2 -182.8,37.2 -182.8,20.8"/>
    <poly id="bldg_7" type="building" color="196,188,176" fill="1" layer="-5" shape="-183.5,47.1 -169.8,47.1 -169.8,61.5 -183.5,61.5 -183.5,47.1"/>
    <poly id="bldg_8" type="building" color="208,200,186" fill="1" layer="-5" shape="-183.0,71.4 -168.1,71.4 -168.1,86.5 -183.0,86.5 -183.0,71.4"/>
    <poly id="bldg_9" type="building" color="175,167,155" fill="1" layer="-5" shape="-184.7,91.9 -170.2,91.9 -170.2,108.7 -184.7,108.7 -184.7,91.9"/>
    <poly id="bldg_10" type="building" color="199,190,178" fill="1" layer="-5" shape="-183.6,118.1 -169.2,118.1 -169.2,133.2 -183.6,133.2 -183.6,118.1"/>
    <poly id="park_11" type="park" color="168,200,148" fill="1" layer="-6" shape="-183.6,140.3 -168.9,140.3 -168.9,156.5 -183.6,156.5 -183.6,140.3"/>
    <poly id="bldg_12" type="building" color="199,190,178" fill="1" layer="-5" shape="-158.7,-123.2 -144.8,-123.2 -144.8,-106.5 -158.7,-106.5 -158.7,-123.2"/>
    <poly id="bldg_13" type="building" color="184,176,164" fill="1" layer="-5" shape="-161.2,-98.2 -146.2,-98.2 -146.2,-81.5 -161.2,-81.5 -161.2,-98.2"/>
    <poly id="bldg_14" type="building" color="175,167,155" fill="1" layer="-5" shape="-162.1,-73.6 -146.7,-73.6 -146.7,-57.5 -162.1,-57.5 -162.1,-73.6"/>
    <poly id="park_15" type="park" color="168,200,148" fill="1" layer="-6" shape="-161.9,-51.3 -144.9,-51.3 -144.9,-36.0 -161.9,-36.0 -161.9,-51.3"/>
    <poly id="bldg_16" type="building" color="212,198,182" fill="1" layer="-5" shape="-158.6,-27.8 -144.4,-27.8 -144.4,-11.9 -158.6,-11.9 -158.6,-27.8"/>
    <poly id="bldg_17" type="building" color="184,176,164" fill="1" layer="-5" shape="-159.5,43.6 -143.5,43.6 -143.5,59.5 -159.5,59.5 -159.5,43.6"/>
    <poly id="park_18" type="park" color="152,190,138" fill="1" layer="-6" shape="-159.2,69.8 -144.6,69.8 -144.6,83.9 -159.2,83.9 -159.2,69.8"/>
    <poly id="bldg_19" type="building" color="199,190,178" fill="1" layer="-5" shape="-158.7,95.6 -143.4,95.6 -143.4,109.5 -158.7,109.5 -158.7,95.6"/>
    <poly id="bldg_20" type="building" color="175,167,155" fill="1" layer="-5" shape="-160.4,117.2 -145.5,117.2 -145.5,131.4 -160.4,131.4 -160.4,117.2"/>
    <poly id="bldg_21" type="building" color="184,176,164" fill="1" layer="-5" shape="-158.9,142.9 -143.7,142.9 -143.7,156.9 -158.9,156.9 -158.9,142.9"/>
    <poly id="bldg_22" type="building" color="196,188,176" fill="1" layer="-5" shape="-137.8,-122.5 -122.2,-122.5 -122.2,-108.6 -137.8,-108.6 -137.8,-122.5"/>
    <poly id="bldg_23" type="building" color="208,200,186" fill="1" layer="-5" shape="-134.1,-98.3 -120.0,-98.3 -120.0,-82.4 -134.1,-82.4 -134.1,-98.3"/>
    <poly id="bldg_24" type="building" color="199,190,178" fill="1" layer="-5" shape="-137.4,-72.2 -122.4,-72.2 -122.4,-57.9 -137.4,-57.9 -137.4,-72.2"/>
    <poly id="bldg_25" type="building" color="175,167,155" fill="1" layer="-5" shape="-135.7,-49.6 -120.7,-49.6 -120.7,-33.7 -135.7,-33.7 -135.7,-49.6"/>
    <poly id="bldg_26" type="building" color="175,167,155" fill="1" layer="-5" shape="-136.1,-26.3 -122.2,-26.3 -122.2,-12.7 -136.1,-12.7 -136.1,-26.3"/>
    <poly id="bldg_27" type="building" color="208,200,186" fill="1" layer="-5" shape="-134.3,47.7 -120.4,47.7 -120.4,62.1 -134.3,62.1 -134.3,47.7"/>
    <poly id="bldg_28" type="building" color="212,198,182" fill="1" layer="-5" shape="-137.1,70.6 -120.5,70.6 -120.5,86.2 -137.1,86.2 -137.1,70.6"/>
    <poly id="bldg_29" type="building" color="212,198,182" fill="1" layer="-5" shape="-134.7,92.7 -120.8,92.7 -120.8,107.8 -134.7,107.8 -134.7,92.7"/>
    <poly id="park_30" type="park" color="152,190,138" fill="1" layer="-6" shape="-135.4,115.8 -119.6,115.8 -119.6,131.6 -135.4,131.6 -135.4,115.8"/>
    <poly id="bldg_31" type="building" color="208,200,186" fill="1" layer="-5" shape="-134.9,140.2 -120.6,140.2 -120.6,155.6 -134.9,155.6 -134.9,140.2"/>
    <poly id="bldg_32" type="building" color="175,167,155" fill="1" layer="-5" shape="-114.2,-123.1 -97.5,-123.1 -97.5,-107.9 -114.2,-107.9 -114.2,-123.1"/>
    <poly id="park_33" type="park" color="168,200,148" fill="1" layer="-6" shape="-114.3,-96.7 -98.8,-96.7 -98.8,-83.1 -114.3,-83.1 -114.3,-96.7"/>
    <poly id="park_34" type="park" color="152,190,138" fill="1" layer="-6" shape="-113.5,-74.0 -99.1,-74.0 -99.1,-59.1 -113.5,-59.1 -113.5,-74.0"/>
    <poly id="bldg_35" type="building" color="199,190,178" fill="1" layer="-5" shape="-115.3,-51.1 -98.6,-51.1 -98.6,-34.8 -115.3,-34.8 -115.3,-51.1"/>
    <poly id="bldg_36" type="building" color="184,176,164" fill="1" layer="-5" shape="-110.9,-24.5 -95.4,-24.5 -95.4,-8.5 -110.9,-8.5 -110.9,-24.5"/>
    <poly id="bldg_37" type="building" color="196,188,176" fill="1" layer="-5" shape="-113.3,43.3 -98.1,43.3 -98.1,60.1 -113.3,60.1 -113.3,43.3"/>
    <poly id="bldg_38" type="building" color="208,200,186" fill="1" layer="-5" shape="-110.2,68.0 -96.0,68.0 -96.0,83.6 -110.2,83.6 -110.2,68.0"/>
    <poly id="park_39" type="park" color="168,200,148" fill="1" layer="-6" shape="-113.1,95.5 -97.6,95.5 -97.6,111.1 -113.1,111.1 -113.1,95.5"/>
    <poly id="bldg_40" type="building" color="199,190,178" fill="1" layer="-5" shape="-113.0,117.4 -97.6,117.4 -97.6,134.2 -113.0,134.2 -113.0,117.4"/>
    <poly id="bldg_41" type="building" color="196,188,176" fill="1" layer="-5" shape="-112.7,140.7 -98.7,140.7 -98.7,156.5 -112.7,156.5 -112.7,140.7"/>
    <poly id="bldg_42" type="building" color="175,167,155" fill="1" layer="-5" shape="-90.7,-121.0 -75.2,-121.0 -75.2,-107.0 -90.7,-107.0 -90.7,-121.0"/>
    <poly id="bldg_43" type="building" color="208,200,186" fill="1" layer="-5" shape="-90.2,-97.1 -73.6,-97.1 -73.6,-80.5 -90.2,-80.5 -90.2,-97.1"/>
    <poly id="bldg_44" type="building" color="175,167,155" fill="1" layer="-5" shape="-88.5,-74.8 -73.9,-74.8 -73.9,-57.9 -88.5,-57.9 -88.5,-74.8"/>
    <poly id="bldg_45" type="building" color="208,200,186" fill="1" layer="-5" shape="-90.2,-49.2 -75.6,-49.2 -75.6,-33.3 -90.2,-33.3 -90.2,-49.2"/>
    <poly id="bldg_46" type="building" color="208,200,186" fill="1" layer="-5" shape="-90.0,-24.0 -73.8,-24.0 -73.8,-9.9 -90.0,-9.9 -90.0,-24.0"/>
    <poly id="bldg_47" type="building" color="184,176,164" fill="1" layer="-5" shape="-89.2,48.2 -72.8,48.2 -72.8,62.1 -89.2,62.1 -89.2,48.2"/>
    <poly id="bldg_48" type="building" color="212,198,182" fill="1" layer="-5" shape="-89.8,68.4 -75.8,68.4 -75.8,85.3 -89.8,85.3 -89.8,68.4"/>
    <poly id="bldg_49" type="building" color="208,200,186" fill="1" layer="-5" shape="-87.6,94.3 -73.9,94.3 -73.9,108.1 -87.6,108.1 -87.6,94.3"/>
    <poly id="bldg_50" type="building" color="184,176,164" fill="1" layer="-5" shape="-88.6,119.8 -73.0,119.8 -73.0,133.9 -88.6,133.9 -88.6,119.8"/>
    <poly id="bldg_51" type="building" color="199,190,178" fill="1" layer="-5" shape="-90.0,144.4 -73.0,144.4 -73.0,158.1 -90.0,158.1 -90.0,144.4"/>
    <poly id="bldg_52" type="building" color="175,167,155" fill="1" layer="-5" shape="-66.1,-124.4 -49.8,-124.4 -49.8,-107.8 -66.1,-107.8 -66.1,-124.4"/>
    <poly id="bldg_53" type="building" color="208,200,186" fill="1" layer="-5" shape="-63.2,-95.9 -48.8,-95.9 -48.8,-81.7 -63.2,-81.7 -63.2,-95.9"/>
    <poly id="bldg_54" type="building" color="199,190,178" fill="1" layer="-5" shape="-63.5,-75.8 -47.4,-75.8 -47.4,-61.0 -63.5,-61.0 -63.5,-75.8"/>
    <poly id="park_55" type="park" color="168,200,148" fill="1" layer="-6" shape="-62.8,-49.4 -48.3,-49.4 -48.3,-33.1 -62.8,-33.1 -62.8,-49.4"/>
    <poly id="bldg_56" type="building" color="208,200,186" fill="1" layer="-5" shape="-63.7,-27.2 -47.3,-27.2 -47.3,-12.0 -63.7,-12.0 -63.7,-27.2"/>
    <poly id="bldg_57" type="building" color="175,167,155" fill="1" layer="-5" shape="-66.1,46.9 -51.3,46.9 -51.3,62.3 -66.1,62.3 -66.1,46.9"/>
    <poly id="bldg_58" type="building" color="184,176,164" fill="1" layer="-5" shape="-65.9,68.4 -49.3,68.4 -49.3,82.9 -65.9,82.9 -65.9,68.4"/>
    <poly id="bldg_59" type="building" color="175,167,155" fill="1" layer="-5" shape="-66.2,93.7 -51.4,93.7 -51.4,110.0 -66.2,110.0 -66.2,93.7"/>
    <poly id="bldg_60" type="building" color="175,167,155" fill="1" layer="-5" shape="-65.6,120.2 -51.4,120.2 -51.4,134.0 -65.6,134.0 -65.6,120.2"/>
    <poly id="bldg_61" type="building" color="184,176,164" fill="1" layer="-5" shape="-63.3,141.6 -47.2,141.6 -47.2,157.7 -63.3,157.7 -63.3,141.6"/>
    <poly id="bldg_62" type="building" color="196,188,176" fill="1" layer="-5" shape="-41.6,-120.6 -24.9,-120.6 -24.9,-104.8 -41.6,-104.8 -41.6,-120.6"/>
    <poly id="bldg_63" type="building" color="184,176,164" fill="1" layer="-5" shape="-39.4,-98.8 -24.8,-98.8 -24.8,-83.8 -39.4,-83.8 -39.4,-98.8"/>
    <poly id="bldg_64" type="building" color="208,200,186" fill="1" layer="-5" shape="-40.7,-75.2 -24.8,-75.2 -24.8,-60.3 -40.7,-60.3 -40.7,-75.2"/>
    <poly id="bldg_65" type="building" color="212,198,182" fill="1" layer="-5" shape="-40.2,-50.1 -24.8,-50.1 -24.8,-36.5 -40.2,-36.5 -40.2,-50.1"/>
    <poly id="bldg_66" type="building" color="175,167,155" fill="1" layer="-5" shape="-39.2,-25.6 -24.5,-25.6 -24.5,-10.5 -39.2,-10.5 -39.2,-25.6"/>
    <poly id="bldg_67" type="building" color="208,200,186" fill="1" layer="-5" shape="-42.5,46.2 -26.7,46.2 -26.7,60.9 -42.5,60.9 -42.5,46.2"/>
    <poly id="bldg_68" type="building" color="212,198,182" fill="1" layer="-5" shape="-39.4,69.6 -25.1,69.6 -25.1,83.2 -39.4,83.2 -39.4,69.6"/>
    <poly id="bldg_69" type="building" color="199,190,178" fill="1" layer="-5" shape="-40.1,94.3 -24.9,94.3 -24.9,110.9 -40.1,110.9 -40.1,94.3"/>
    <poly id="park_70" type="park" color="168,200,148" fill="1" layer="-6" shape="-39.4,117.6 -25.0,117.6 -25.0,133.4 -39.4,133.4 -39.4,117.6"/>
    <poly id="bldg_71" type="building" color="175,167,155" fill="1" layer="-5" shape="-40.0,140.4 -23.7,140.4 -23.7,156.4 -40.0,156.4 -40.0,140.4"/>
    <poly id="bldg_72" type="building" color="175,167,155" fill="1" layer="-5" shape="-17.5,-121.3 -2.4,-121.3 -2.4,-104.9 -17.5,-104.9 -17.5,-121.3"/>
    <poly id="bldg_73" type="building" color="199,190,178" fill="1" layer="-5" shape="-17.6,141.7 -2.2,141.7 -2.2,155.8 -17.6,155.8 -17.6,141.7"/>
    <poly id="bldg_74" type="building" color="196,188,176" fill="1" layer="-5" shape="6.1,-123.0 21.2,-123.0 21.2,-108.3 6.1,-108.3 6.1,-123.0"/>
    <poly id="bldg_75" type="building" color="175,167,155" fill="1" layer="-5" shape="5.5,-98.6 22.2,-98.6 22.2,-83.0 5.5,-83.0 5.5,-98.6"/>
    <poly id="bldg_76" type="building" color="212,198,182" fill="1" layer="-5" shape="7.2,-76.6 22.0,-76.6 22.0,-60.4 7.2,-60.4 7.2,-76.6"/>
    <poly id="bldg_77" type="building" color="184,176,164" fill="1" layer="-5" shape="7.0,-49.9 23.4,-49.9 23.4,-33.2 7.0,-33.2 7.0,-49.9"/>
    <poly id="bldg_78" type="building" color="208,200,186" fill="1" layer="-5" shape="7.4,-28.3 22.2,-28.3 22.2,-12.4 7.4,-12.4 7.4,-28.3"/>
    <poly id="bldg_79" type="building" color="212,198,182" fill="1" layer="-5" shape="8.7,46.9 24.6,46.9 24.6,60.8 8.7,60.8 8.7,46.9"/>
    <poly id="bldg_80" type="building" color="212,198,182" fill="1" layer="-5" shape="6.4,69.0 21.1,69.0 21.1,84.1 6.4,84.1 6.4,69.0"/>
    <poly id="bldg_81" type="building" color="199,190,178" fill="1" layer="-5" shape="6.6,95.1 21.7,95.1 21.7,111.5 6.6,111.5 6.6,95.1"/>
    <poly id="bldg_82" type="building" color="199,190,178" fill="1" layer="-5" shape="7.8,119.6 22.6,119.6 22.6,135.4 7.8,135.4 7.8,119.6"/>
    <poly id="bldg_83" type="building" color="208,200,186" fill="1" layer="-5" shape="6.0,139.4 20.4,139.4 20.4,155.9 6.0,155.9 6.0,139.4"/>
    <poly id="bldg_84" type="building" color="184,176,164" fill="1" layer="-5" shape="29.8,-121.0 45.3,-121.0 45.3,-106.7 29.8,-106.7 29.8,-121.0"/>
    <poly id="bldg_85" type="building" color="184,176,164" fill="1" layer="-5" shape="29.6,-97.1 45.8,-97.1 45.8,-83.1 29.6,-83.1 29.6,-97.1"/>
    <poly id="bldg_86" type="building" color="212,198,182" fill="1" layer="-5" shape="30.1,-76.3 44.8,-76.3 44.8,-60.4 30.1,-60.4 30.1,-76.3"/>
    <poly id="bldg_87" type="building" color="199,190,178" fill="1" layer="-5" shape="33.0,-51.9 48.6,-51.9 48.6,-35.5 33.0,-35.5 33.0,-51.9"/>
    <poly id="bldg_88" type="building" color="196,188,176" fill="1" layer="-5" shape="32.3,-24.1 48.0,-24.1 48.0,-10.1 32.3,-10.1 32.3,-24.1"/>
    <poly id="bldg_89" type="building" color="199,190,178" fill="1" layer="-5" shape="30.2,47.9 46.6,47.9 46.6,61.9 30.2,61.9 30.2,47.9"/>
    <poly id="bldg_90" type="building" color="199,190,178" fill="1" layer="-5" shape="33.5,70.2 47.7,70.2 47.7,84.4 33.5,84.4 33.5,70.2"/>
    <poly id="bldg_91" type="building" color="199,190,178" fill="1" layer="-5" shape="30.4,95.1 45.8,95.1 45.8,110.4 30.4,110.4 30.4,95.1"/>
    <poly id="bldg_92" type="building" color="212,198,182" fill="1" layer="-5" shape="32.2,116.4 46.6,116.4 46.6,133.2 32.2,133.2 32.2,116.4"/>
    <poly id="park_93" type="park" color="152,190,138" fill="1" layer="-6" shape="30.2,141.9 45.9,141.9 45.9,156.8 30.2,156.8 30.2,141.9"/>
    <poly id="bldg_94" type="building" color="199,190,178" fill="1" layer="-5" shape="53.6,-123.0 69.9,-123.0 69.9,-108.3 53.6,-108.3 53.6,-123.0"/>
    <poly id="bldg_95" type="building" color="212,198,182" fill="1" layer="-5" shape="56.9,-97.4 72.2,-97.4 72.2,-83.2 56.9,-83.2 56.9,-97.4"/>
    <poly id="bldg_96" type="building" color="196,188,176" fill="1" layer="-5" shape="55.0,-73.4 71.0,-73.4 71.0,-57.6 55.0,-57.6 55.0,-73.4"/>
    <poly id="bldg_97" type="building" color="212,198,182" fill="1" layer="-5" shape="53.4,-50.9 69.4,-50.9 69.4,-36.3 53.4,-36.3 53.4,-50.9"/>
    <poly id="bldg_98" type="building" color="212,198,182" fill="1" layer="-5" shape="54.8,-26.9 71.7,-26.9 71.7,-11.4 54.8,-11.4 54.8,-26.9"/>
    <poly id="bldg_99" type="building" color="212,198,182" fill="1" layer="-5" shape="53.4,46.5 69.6,46.5 69.6,60.8 53.4,60.8 53.4,46.5"/>
    <poly id="bldg_100" type="building" color="208,200,186" fill="1" layer="-5" shape="54.1,70.0 70.2,70.0 70.2,85.7 54.1,85.7 54.1,70.0"/>
    <poly id="bldg_101" type="building" color="196,188,176" fill="1" layer="-5" shape="54.9,92.9 69.5,92.9 69.5,108.9 54.9,108.9 54.9,92.9"/>
    <poly id="bldg_102" type="building" color="212,198,182" fill="1" layer="-5" shape="57.0,118.7 72.9,118.7 72.9,132.7 57.0,132.7 57.0,118.7"/>
    <poly id="bldg_103" type="building" color="196,188,176" fill="1" layer="-5" shape="54.2,139.9 68.7,139.9 68.7,155.2 54.2,155.2 54.2,139.9"/>
    <poly id="bldg_104" type="building" color="175,167,155" fill="1" layer="-5" shape="79.1,-120.0 93.0,-120.0 93.0,-106.1 79.1,-106.1 79.1,-120.0"/>
    <poly id="bldg_105" type="building" color="208,200,186" fill="1" layer="-5" shape="80.5,-100.0 94.6,-100.0 94.6,-84.5 80.5,-84.5 80.5,-100.0"/>
    <poly id="bldg_106" type="building" color="175,167,155" fill="1" layer="-5" shape="77.7,-73.6 93.3,-73.6 93.3,-57.3 77.7,-57.3 77.7,-73.6"/>
    <poly id="bldg_107" type="building" color="175,167,155" fill="1" layer="-5" shape="79.3,-48.7 93.9,-48.7 93.9,-33.1 79.3,-33.1 79.3,-48.7"/>
    <poly id="bldg_108" type="building" color="208,200,186" fill="1" layer="-5" shape="79.5,-26.5 95.6,-26.5 95.6,-9.7 79.5,-9.7 79.5,-26.5"/>
    <poly id="park_109" type="park" color="152,190,138" fill="1" layer="-6" shape="77.7,45.5 93.6,45.5 93.6,60.7 77.7,60.7 77.7,45.5"/>
    <poly id="bldg_110" type="building" color="199,190,178" fill="1" layer="-5" shape="80.3,70.3 95.4,70.3 95.4,86.3 80.3,86.3 80.3,70.3"/>
    <poly id="bldg_111" type="building" color="208,200,186" fill="1" layer="-5" shape="80.3,95.7 94.5,95.7 94.5,109.7 80.3,109.7 80.3,95.7"/>
    <poly id="bldg_112" type="building" color="199,190,178" fill="1" layer="-5" shape="81.8,119.7 95.6,119.7 95.6,133.9 81.8,133.9 81.8,119.7"/>
    <poly id="bldg_113" type="building" color="212,198,182" fill="1" layer="-5" shape="80.8,143.6 95.9,143.6 95.9,158.8 80.8,158.8 80.8,143.6"/>
    <poly id="park_114" type="park" color="152,190,138" fill="1" layer="-6" shape="105.2,-121.4 120.5,-121.4 120.5,-107.6 105.2,-107.6 105.2,-121.4"/>
    <poly id="bldg_115" type="building" color="175,167,155" fill="1" layer="-5" shape="105.1,-97.3 118.8,-97.3 118.8,-82.9 105.1,-82.9 105.1,-97.3"/>
    <poly id="bldg_116" type="building" color="208,200,186" fill="1" layer="-5" shape="103.3,-76.6 119.5,-76.6 119.5,-60.2 103.3,-60.2 103.3,-76.6"/>
    <poly id="bldg_117" type="building" color="199,190,178" fill="1" layer="-5" shape="102.6,-49.0 119.3,-49.0 119.3,-34.8 102.6,-34.8 102.6,-49.0"/>
    <poly id="bldg_118" type="building" color="196,188,176" fill="1" layer="-5" shape="104.7,-24.1 119.9,-24.1 119.9,-9.1 104.7,-9.1 104.7,-24.1"/>
    <poly id="bldg_119" type="building" color="184,176,164" fill="1" layer="-5" shape="105.1,47.2 120.6,47.2 120.6,62.3 105.1,62.3 105.1,47.2"/>
    <poly id="park_120" type="park" color="152,190,138" fill="1" layer="-6" shape="101.2,70.4 117.8,70.4 117.8,86.8 101.2,86.8 101.2,70.4"/>
    <poly id="bldg_121" type="building" color="196,188,176" fill="1" layer="-5" shape="103.3,92.2 118.1,92.2 118.1,108.3 103.3,108.3 103.3,92.2"/>
    <poly id="bldg_122" type="building" color="196,188,176" fill="1" layer="-5" shape="101.5,118.2 118.2,118.2 118.2,133.2 101.5,133.2 101.5,118.2"/>
    <poly id="bldg_123" type="building" color="196,188,176" fill="1" layer="-5" shape="101.0,142.0 117.3,142.0 117.3,158.0 101.0,158.0 101.0,142.0"/>
    <poly id="bldg_124" type="building" color="196,188,176" fill="1" layer="-5" shape="126.8,-124.5 143.7,-124.5 143.7,-107.8 126.8,-107.8 126.8,-124.5"/>
    <poly id="bldg_125" type="building" color="212,198,182" fill="1" layer="-5" shape="127.2,-99.2 144.0,-99.2 144.0,-84.6 127.2,-84.6 127.2,-99.2"/>
    <poly id="bldg_126" type="building" color="175,167,155" fill="1" layer="-5" shape="129.2,-72.3 143.6,-72.3 143.6,-56.8 129.2,-56.8 129.2,-72.3"/>
    <poly id="bldg_127" type="building" color="212,198,182" fill="1" layer="-5" shape="126.8,-48.3 143.3,-48.3 143.3,-33.7 126.8,-33.7 126.8,-48.3"/>
    <poly id="bldg_128" type="building" color="175,167,155" fill="1" layer="-5" shape="127.1,-24.2 141.7,-24.2 141.7,-10.5 127.1,-10.5 127.1,-24.2"/>
    <poly id="bldg_129" type="building" color="208,200,186" fill="1" layer="-5" shape="126.9,45.4 143.1,45.4 143.1,60.3 126.9,60.3 126.9,45.4"/>
    <poly id="bldg_130" type="building" color="184,176,164" fill="1" layer="-5" shape="129.5,68.2 144.4,68.2 144.4,84.7 129.5,84.7 129.5,68.2"/>
    <poly id="bldg_131" type="building" color="199,190,178" fill="1" layer="-5" shape="127.8,94.9 144.2,94.9 144.2,109.8 127.8,109.8 127.8,94.9"/>
    <poly id="bldg_132" type="building" color="196,188,176" fill="1" layer="-5" shape="130.1,117.8 143.8,117.8 143.8,133.1 130.1,133.1 130.1,117.8"/>
    <poly id="bldg_133" type="building" color="212,198,182" fill="1" layer="-5" shape="128.8,141.7 144.2,141.7 144.2,156.8 128.8,156.8 128.8,141.7"/>
    <poly id="bldg_134" type="building" color="175,167,155" fill="1" layer="-5" shape="153.6,-120.7 167.5,-120.7 167.5,-104.5 153.6,-104.5 153.6,-120.7"/>
    <poly id="bldg_135" type="building" color="212,198,182" fill="1" layer="-5" shape="151.6,-98.1 168.1,-98.1 168.1,-81.7 151.6,-81.7 151.6,-98.1"/>
    <poly id="bldg_136" type="building" color="175,167,155" fill="1" layer="-5" shape="152.5,-73.6 169.2,-73.6 169.2,-58.4 152.5,-58.4 152.5,-73.6"/>
    <poly id="bldg_137" type="building" color="212,198,182" fill="1" layer="-5" shape="148.9,-50.5 165.7,-50.5 165.7,-33.5 148.9,-33.5 148.9,-50.5"/>
    <poly id="bldg_138" type="building" color="184,176,164" fill="1" layer="-5" shape="153.0,-24.4 168.9,-24.4 168.9,-10.5 153.0,-10.5 153.0,-24.4"/>
    <poly id="bldg_139" type="building" color="208,200,186" fill="1" layer="-5" shape="150.8,44.3 166.2,44.3 166.2,59.8 150.8,59.8 150.8,44.3"/>
    <poly id="bldg_140" type="building" color="175,167,155" fill="1" layer="-5" shape="150.3,70.0 165.2,70.0 165.2,85.9 150.3,85.9 150.3,70.0"/>
    <poly id="park_141" type="park" color="152,190,138" fill="1" layer="-6" shape="150.4,94.1 164.8,94.1 164.8,108.6 150.4,108.6 150.4,94.1"/>
    <poly id="bldg_142" type="building" color="175,167,155" fill="1" layer="-5" shape="153.6,118.7 167.7,118.7 167.7,133.8 153.6,133.8 153.6,118.7"/>
    <poly id="bldg_143" type="building" color="212,198,182" fill="1" layer="-5" shape="150.3,143.8 166.2,143.8 166.2,158.9 150.3,158.9 150.3,143.8"/>
    <poly id="bldg_144" type="building" color="199,190,178" fill="1" layer="-5" shape="177.0,-123.5 191.9,-123.5 191.9,-108.7 177.0,-108.7 177.0,-123.5"/>
    <poly id="bldg_145" type="building" color="199,190,178" fill="1" layer="-5" shape="174.3,-95.9 190.1,-95.9 190.1,-81.3 174.3,-81.3 174.3,-95.9"/>
    <poly id="bldg_146" type="building" color="184,176,164" fill="1" layer="-5" shape="175.8,-72.7 192.5,-72.7 192.5,-56.5 175.8,-56.5 175.8,-72.7"/>
    <poly id="bldg_147" type="building" color="184,176,164" fill="1" layer="-5" shape="176.0,-50.8 192.3,-50.8 192.3,-36.4 176.0,-36.4 176.0,-50.8"/>
    <poly id="bldg_148" type="building" color="199,190,178" fill="1" layer="-5" shape="175.8,-25.8 191.7,-25.8 191.7,-9.4 175.8,-9.4 175.8,-25.8"/>
    <poly id="bldg_149" type="building" color="196,188,176" fill="1" layer="-5" shape="176.1,-3.0 191.2,-3.0 191.2,12.5 176.1,12.5 176.1,-3.0"/>
    <poly id="bldg_150" type="building" color="184,176,164" fill="1" layer="-5" shape="177.2,21.7 192.2,21.7 192.2,35.9 177.2,35.9 177.2,21.7"/>
    <poly id="bldg_151" type="building" color="212,198,182" fill="1" layer="-5" shape="175.0,47.9 191.4,47.9 191.4,62.4 175.0,62.4 175.0,47.9"/>
    <poly id="bldg_152" type="building" color="196,188,176" fill="1" layer="-5" shape="176.6,68.5 193.2,68.5 193.2,84.8 176.6,84.8 176.6,68.5"/>
    <poly id="bldg_153" type="building" color="175,167,155" fill="1" layer="-5" shape="173.3,95.3 189.9,95.3 189.9,111.4 173.3,111.4 173.3,95.3"/>
    <poly id="bldg_154" type="building" color="199,190,178" fill="1" layer="-5" shape="175.7,119.0 189.3,119.0 189.3,134.4 175.7,134.4 175.7,119.0"/>
    <poly id="bldg_155" type="building" color="199,190,178" fill="1" layer="-5" shape="176.6,140.7 191.5,140.7 191.5,156.4 176.6,156.4 176.6,140.7"/>
</additional>
