<?xml version="1.0" encoding="UTF-8"?>

<!-- generated on 2026-04-14T20:24:35.639408+00:00 by Eclipse SUMO netedit 1.26.0
<neteditConfiguration xmlns:xsi="http://www.w3.org/2001/XMLSchema-instance" xsi:noNamespaceSchemaLocation="http://sumo.dlr.de/xsd/neteditConfiguration.xsd">

    <input>
        <sumo-net-file value="C:\Users\tahae\Desktop\Smart-traffic-management\envs\4x4_intersections\env.net.xml"/>
    </input>

    <output>
        <output-file value="C:\Users\tahae\Desktop\Smart-traffic-management\envs\4x4_intersections\env.net.xml"/>
    </output>

    <processing>
        <geometry.min-radius.fix.railways value="false"/>
        <geometry.avoid-overlap value="false"/>
        <geometry.max-grade.fix value="false"/>
        <offset.disable-normalization value="true"/>
        <lefthand value="0"/>
    </processing>

    <junctions>
        <no-turnarounds value="true"/>
        <junctions.corner-detail value="5"/>
        <junctions.limit-turn-speed value="5.50"/>
        <rectangular-lane-cut value="0"/>
    </junctions>

    <pedestrian>
        <walkingareas value="0"/>
    </pedestrian>

</neteditConfiguration>
-->

<net version="1.20" junctionCornerDetail="5" limitTurnSpeed="5.50" avoidOverlap="0" xmlns:xsi="http://www.w3.org/2001/XMLSchema-instance" xsi:noNamespaceSchemaLocation="http://sumo.dlr.de/xsd/net_file.xsd">

    <location netOffset="0.00,0.00" convBoundary="-153.96,-91.50,167.44,132.73" origBoundary="-10000000000.00,-10000000000.00,10000000000.00,10000000000.00" projParameter="!"/>

    <edge id=":J4_0" function="internal">
        <lane id=":J4_0_0" index="0" speed="6.50" length="9.03" shape="-11.84,20.46 -12.20,18.01 -13.26,16.27 -15.02,15.24 -17.48,14.92"/>
    </edge>
    <edge id=":J4_1" function="internal">
        <lane id=":J4_1_0" index="0" speed="13.89" length="20.91" shape="-11.84,20.46 -11.85,-0.46"/>
        <lane id=":J4_1_1" index="1" speed="13.89" length="20.91" shape="-8.64,20.44 -8.65,-0.44"/>
    </edge>
    <edge id=":J4_3" function="internal">
        <lane id=":J4_3_0" index="0" speed="9.25" length="5.15" shape="-8.64,20.44 -7.94,15.34"/>
    </edge>
    <edge id=":J4_16" function="internal">
        <lane id=":J4_16_0" index="0" speed="9.25" length="14.24" shape="-7.94,15.34 -7.92,15.18 -5.68,11.41 -1.93,9.15 3.34,8.39"/>
    </edge>
    <edge id=":J4_4" function="internal">
        <lane id=":J4_4_0" index="0" speed="6.50" length="9.03" shape="3.34,14.79 0.89,15.15 -0.86,16.20 -1.90,17.95 -2.24,20.41"/>
    </edge>
    <edge id=":J4_5" function="internal">
        <lane id=":J4_5_0" index="0" speed="13.89" length="20.84" shape="3.34,14.79 -17.48,14.92"/>
        <lane id=":J4_5_1" index="1" speed="13.89" length="20.84" shape="3.34,11.59 -17.52,11.72"/>
    </edge>
    <edge id=":J4_7" function="internal">
        <lane id=":J4_7_0" index="0" speed="9.25" length="4.83" shape="3.34,11.59 -1.44,10.91"/>
    </edge>
    <edge id=":J4_17" function="internal">
        <lane id=":J4_17_0" index="0" speed="9.25" length="14.57" shape="-1.44,10.91 -1.93,10.84 -5.68,8.59 -7.92,4.83 -8.65,-0.44"/>
    </edge>
    <edge id=":J4_8" function="internal">
        <lane id=":J4_8_0" index="0" speed="6.50" length="9.03" shape="-2.25,-0.41 -1.91,2.04 -0.87,3.79 0.88,4.84 3.33,5.19"/>
    </edge>
    <edge id=":J4_9" function="internal">
        <lane id=":J4_9_0" index="0" speed="13.89" length="20.84" shape="-2.25,-0.41 -2.24,20.41"/>
        <lane id=":J4_9_1" index="1" speed="13.89" length="20.84" shape="-5.45,-0.43 -5.44,20.43"/>
    </edge>
    <edge id=":J4_11" function="internal">
        <lane id=":J4_11_0" index="0" speed="9.34" length="4.84" shape="-5.45,-0.43 -6.15,4.36"/>
    </edge>
    <edge id=":J4_18" function="internal">
        <lane id=":J4_18_0" index="0" speed="9.34" length="14.61" shape="-6.15,4.36 -6.22,4.84 -8.49,8.61 -12.26,10.91 -17.52,11.72"/>
    </edge>
    <edge id=":J4_12" function="internal">
        <lane id=":J4_12_0" index="0" speed="6.62" length="9.26" shape="-17.59,5.32 -15.09,4.93 -13.30,3.84 -12.22,2.04 -11.85,-0.46"/>
    </edge>
    <edge id=":J4_13" function="internal">
        <lane id=":J4_13_0" index="0" speed="13.89" length="20.91" shape="-17.59,5.32 3.33,5.19"/>
        <lane id=":J4_13_1" index="1" speed="13.89" length="20.91" shape="-17.55,8.52 3.34,8.39"/>
    </edge>
    <edge id=":J4_15" function="internal">
        <lane id=":J4_15_0" index="0" speed="9.25" length="5.15" shape="-17.55,8.52 -12.44,9.19"/>
    </edge>
    <edge id=":J4_19" function="internal">
        <lane id=":J4_19_0" index="0" speed="9.25" length="14.24" shape="-12.44,9.19 -12.28,9.21 -8.50,11.43 -6.22,15.16 -5.44,20.43"/>
    </edge>

    <edge id="in_N" from="J6" to="J4" priority="-1">
        <lane id="in_N_0" index="0" speed="13.89" length="112.30" shape="-11.16,132.76 -11.84,20.46"/>
        <lane id="in_N_1" index="1" speed="13.89" length="112.30" shape="-7.96,132.74 -8.64,20.44"/>
    </edge>
    <edge id="in_S" from="J7" to="J4" priority="-1">
        <lane id="in_S_0" index="0" speed="13.89" length="91.07" shape="-1.79,-91.48 -2.25,-0.41"/>
        <lane id="in_S_1" index="1" speed="13.89" length="91.07" shape="-4.99,-91.49 -5.45,-0.43"/>
    </edge>
    <edge id="in_W" from="J3" to="J4" priority="-1">
        <lane id="in_W_0" index="0" speed="13.89" length="136.43" shape="-154.02,6.89 -17.59,5.32"/>
        <lane id="in_W_1" index="1" speed="13.89" length="136.43" shape="-153.98,10.09 -17.55,8.52"/>
    </edge>
    <edge id="int_E" from="J5" to="J4" priority="-1">
        <lane id="int_E_0" index="0" speed="13.89" length="164.10" shape="167.44,14.70 3.34,14.79"/>
        <lane id="int_E_1" index="1" speed="13.89" length="164.10" shape="167.44,11.50 3.34,11.59"/>
    </edge>
    <edge id="out_E" from="J4" to="J5" priority="-1">
        <lane id="out_E_0" index="0" speed="13.89" length="164.10" shape="3.33,5.19 167.44,5.10"/>
        <lane id="out_E_1" index="1" speed="13.89" length="164.10" shape="3.34,8.39 167.44,8.30"/>
    </edge>
    <edge id="out_N" from="J4" to="J6" priority="-1">
        <lane id="out_N_0" index="0" speed="13.89" length="112.30" shape="-2.24,20.41 -1.56,132.70"/>
        <lane id="out_N_1" index="1" speed="13.89" length="112.30" shape="-5.44,20.43 -4.76,132.72"/>
    </edge>
    <edge id="out_S" from="J4" to="J7" priority="-1">
        <lane id="out_S_0" index="0" speed="13.89" length="91.07" shape="-11.85,-0.46 -11.39,-91.52"/>
        <lane id="out_S_1" index="1" speed="13.89" length="91.07" shape="-8.65,-0.44 -8.19,-91.51"/>
    </edge>
    <edge id="out_W" from="J4" to="J3" priority="-1">
        <lane id="out_W_0" index="0" speed="13.89" length="136.43" shape="-17.48,14.92 -153.90,16.49"/>
        <lane id="out_W_1" index="1" speed="13.89" length="136.43" shape="-17.52,11.72 -153.94,13.29"/>
    </edge>

    <tlLogic id="J4" type="static" programID="0" offset="0">
        <phase duration="42" state="GGGgrrrrGGGgrrrr"/>
        <phase duration="3"  state="yyyyrrrryyyyrrrr"/>
        <phase duration="42" state="rrrrGGGgrrrrGGGg"/>
        <phase duration="3"  state="rrrryyyyrrrryyyy"/>
    </tlLogic>

    <junction id="J3" type="dead_end" x="-153.96" y="11.69" incLanes="out_W_0 out_W_1" intLanes="" shape="-153.96,11.69 -153.89,18.09 -153.96,11.69"/>
    <junction id="J4" type="traffic_light" x="-7.10" y="10.00" incLanes="in_N_0 in_N_1 int_E_0 int_E_1 in_S_0 in_S_1 in_W_0 in_W_1" intLanes=":J4_0_0 :J4_1_0 :J4_1_1 :J4_16_0 :J4_4_0 :J4_5_0 :J4_5_1 :J4_17_0 :J4_8_0 :J4_9_0 :J4_9_1 :J4_18_0 :J4_12_0 :J4_13_0 :J4_13_1 :J4_19_0" shape="-13.44,20.47 -0.64,20.40 -0.21,18.17 0.34,17.40 1.12,16.84 2.12,16.51 3.34,16.39 3.33,3.59 1.11,3.15 0.34,2.60 -0.21,1.82 -0.54,0.82 -0.65,-0.40 -13.45,-0.47 -13.92,1.84 -14.50,2.65 -15.31,3.23 -16.34,3.59 -17.61,3.72 -17.46,16.52 -15.24,16.94 -14.45,17.49 -13.89,18.26 -13.56,19.25">
        <request index="0"  response="0000000001100000" foes="0000000001100000" cont="0"/>
        <request index="1"  response="1111000011100000" foes="1111100011100000" cont="0"/>
        <request index="2"  response="1111000011100000" foes="1111100011100000" cont="0"/>
        <request index="3"  response="1110011011100000" foes="1110011011100000" cont="1"/>
        <request index="4"  response="0000000000000000" foes="0000011000000000" cont="0"/>
        <request index="5"  response="0000000000001000" foes="1000111000001111" cont="0"/>
        <request index="6"  response="0000100000001000" foes="1000111000001111" cont="0"/>
        <request index="7"  response="0110100000001000" foes="0110111000001110" cont="1"/>
        <request index="8"  response="0110000000000000" foes="0110000000000000" cont="0"/>
        <request index="9"  response="1110000011110000" foes="1110000011111000" cont="0"/>
        <request index="10" response="1110000011110000" foes="1110000011111000" cont="0"/>
        <request index="11" response="1110000011100110" foes="1110000011100110" cont="1"/>
        <request index="12" response="0000000000000000" foes="0000000000000110" cont="0"/>
        <request index="13" response="0000100000000000" foes="0000111110001110" cont="0"/>
        <request index="14" response="0000100000001000" foes="0000111110001110" cont="0"/>
        <request index="15" response="0000100001101000" foes="0000111001101110" cont="1"/>
    </junction>
    <junction id="J5" type="dead_end" x="167.44" y="9.90" incLanes="out_E_0 out_E_1" intLanes="" shape="167.44,9.90 167.44,3.50 167.44,9.90"/>
    <junction id="J6" type="dead_end" x="-6.36" y="132.73" incLanes="out_N_0 out_N_1" intLanes="" shape="-6.36,132.73 0.04,132.69 -6.36,132.73"/>
    <junction id="J7" type="dead_end" x="-6.59" y="-91.50" incLanes="out_S_0 out_S_1" intLanes="" shape="-6.59,-91.50 -12.99,-91.53 -6.59,-91.50"/>

    <junction id=":J4_16_0" type="internal" x="-7.94" y="15.34" incLanes=":J4_3_0 in_S_0 in_S_1" intLanes=":J4_5_0 :J4_5_1 :J4_7_0 :J4_8_0 :J4_9_0 :J4_9_1 :J4_13_0 :J4_13_1 :J4_15_0"/>
    <junction id=":J4_17_0" type="internal" x="-1.44" y="10.91" incLanes=":J4_7_0 in_W_0 in_W_1" intLanes=":J4_1_0 :J4_1_1 :J4_3_0 :J4_9_0 :J4_9_1 :J4_11_0 :J4_12_0 :J4_13_0 :J4_13_1"/>
    <junction id=":J4_18_0" type="internal" x="-6.15" y="4.36" incLanes=":J4_11_0 in_N_0 in_N_1" intLanes=":J4_0_0 :J4_1_0 :J4_1_1 :J4_5_0 :J4_5_1 :J4_7_0 :J4_13_0 :J4_13_1 :J4_15_0"/>
    <junction id=":J4_19_0" type="internal" x="-12.44" y="9.19" incLanes=":J4_15_0 int_E_0 int_E_1" intLanes=":J4_1_0 :J4_1_1 :J4_3_0 :J4_4_0 :J4_5_0 :J4_5_1 :J4_9_0 :J4_9_1 :J4_11_0"/>

    <connection from="in_N" to="out_W" fromLane="0" toLane="0" via=":J4_0_0" tl="J4" linkIndex="0" dir="r" state="o"/>
    <connection from="in_N" to="out_S" fromLane="0" toLane="0" via=":J4_1_0" tl="J4" linkIndex="1" dir="s" state="o"/>
    <connection from="in_N" to="out_S" fromLane="1" toLane="1" via=":J4_1_1" tl="J4" linkIndex="2" dir="s" state="o"/>
    <connection from="in_N" to="out_E" fromLane="1" toLane="1" via=":J4_3_0" tl="J4" linkIndex="3" dir="l" state="o"/>
    <connection from="in_S" to="out_E" fromLane="0" toLane="0" via=":J4_8_0" tl="J4" linkIndex="8" dir="r" state="o"/>
    <connection from="in_S" to="out_N" fromLane="0" toLane="0" via=":J4_9_0" tl="J4" linkIndex="9" dir="s" state="o"/>
    <connection from="in_S" to="out_N" fromLane="1" toLane="1" via=":J4_9_1" tl="J4" linkIndex="10" dir="s" state="o"/>
    <connection from="in_S" to="out_W" fromLane="1" toLane="1" via=":J4_11_0" tl="J4" linkIndex="11" dir="l" state="o"/>
    <connection from="in_W" to="out_S" fromLane="0" toLane="0" via=":J4_12_0" tl="J4" linkIndex="12" dir="r" state="O"/>
    <connection from="in_W" to="out_E" fromLane="0" toLane="0" via=":J4_13_0" tl="J4" linkIndex="13" dir="s" state="O"/>
    <connection from="in_W" to="out_E" fromLane="1" toLane="1" via=":J4_13_1" tl="J4" linkIndex="14" dir="s" state="O"/>
    <connection from="in_W" to="out_N" fromLane="1" toLane="1" via=":J4_15_0" tl="J4" linkIndex="15" dir="l" state="o"/>
    <connection from="int_E" to="out_N" fromLane="0" toLane="0" via=":J4_4_0" tl="J4" linkIndex="4" dir="r" state="O"/>
    <connection from="int_E" to="out_W" fromLane="0" toLane="0" via=":J4_5_0" tl="J4" linkIndex="5" dir="s" state="O"/>
    <connection from="int_E" to="out_W" fromLane="1" toLane="1" via=":J4_5_1" tl="J4" linkIndex="6" dir="s" state="O"/>
    <connection from="int_E" to="out_S" fromLane="1" toLane="1" via=":J4_7_0" tl="J4" linkIndex="7" dir="l" state="o"/>

    <connection from=":J4_0" to="out_W" fromLane="0" toLane="0" dir="r" state="M"/>
    <connection from=":J4_1" to="out_S" fromLane="0" toLane="0" dir="s" state="M"/>
    <connection from=":J4_1" to="out_S" fromLane="1" toLane="1" dir="s" state="M"/>
    <connection from=":J4_3" to="out_E" fromLane="0" toLane="1" via=":J4_16_0" dir="l" state="m"/>
    <connection from=":J4_16" to="out_E" fromLane="0" toLane="1" dir="l" state="M"/>
    <connection from=":J4_4" to="out_N" fromLane="0" toLane="0" dir="r" state="M"/>
    <connection from=":J4_5" to="out_W" fromLane="0" toLane="0" dir="s" state="M"/>
    <connection from=":J4_5" to="out_W" fromLane="1" toLane="1" dir="s" state="M"/>
    <connection from=":J4_7" to="out_S" fromLane="0" toLane="1" via=":J4_17_0" dir="l" state="m"/>
    <connection from=":J4_17" to="out_S" fromLane="0" toLane="1" dir="l" state="M"/>
    <connection from=":J4_8" to="out_E" fromLane="0" toLane="0" dir="r" state="M"/>
    <connection from=":J4_9" to="out_N" fromLane="0" toLane="0" dir="s" state="M"/>
    <connection from=":J4_9" to="out_N" fromLane="1" toLane="1" dir="s" state="M"/>
    <connection from=":J4_11" to="out_W" fromLane="0" toLane="1" via=":J4_18_0" dir="l" state="m"/>
    <connection from=":J4_18" to="out_W" fromLane="0" toLane="1" dir="l" state="M"/>
    <connection from=":J4_12" to="out_S" fromLane="0" toLane="0" dir="r" state="M"/>
    <connection from=":J4_13" to="out_E" fromLane="0" toLane="0" dir="s" state="M"/>
    <connection from=":J4_13" to="out_E" fromLane="1" toLane="1" dir="s" state="M"/>
    <connection from=":J4_15" to="out_N" fromLane="0" toLane="1" via=":J4_19_0" dir="l" state="m"/>
    <connection from=":J4_19" to="out_N" fromLane="0" toLane="1" dir="l" state="M"/>

</net>
