<configuration>
    <input>
        <net-file value="env.net.xml"/>
        <route-files value="dynamic.rou.xml"/>
    </input>
    <time>
        <begin value="0"/>
    </time>
    <gui_only>
        <gui-settings-file value="../gui_settings.xml"/>
    </gui_only>
</configuration>
